                                                                
version 2
run General-0-20171016-10:53:19-2954
attr configname General
attr datetime 20171016-10:53:19
attr experiment General
attr inifile omnetpp.ini
attr iterationvars ""
attr iterationvars2 $repetition=0
attr measurement ""
attr network Network
attr processid 2954
attr repetition 0
attr replication #0
attr resultdir results
attr runnumber 0
attr seedset 0
param Network.Rx.Battery.RatedCapacity 864000
param Network.Rx.Consumer.LoadDuration 0s
param Network.Rx.Consumer.RcvModeCons 4
param Network.Rx.Consumer.SleepModeCons 0
param Network.Tx.Battery.RatedCapacity 864000
param Network.Tx.Battery.RecoveryProb 0.7
param Network.Tx.Consumer.LoadDuration "15 ms"
param Network.Tx.Consumer.SendModeCons 4
param Network.Tx.Consumer.SleepDuration "185 ms"
param Network.Tx.Consumer.SleepModeCons 0.005

vector 0  Network.Tx.Battery  NominalCapacity:vector  ETV
attr interpolationmode  none
attr source  Battery
attr title  "NominalCapacity, vector"
vector 1  Network.Rx.Battery  NominalCapacity:vector  ETV
attr interpolationmode  none
attr source  Battery
attr title  "NominalCapacity, vector"
0	1096 10068713 0 1198339 0 19975.6 299636 7199926092.9386 7200000000 2.1573681275213e+15 1.5532970796852e+25
1	10069809 13103481 0 1198340 0 19975.6 399415 7199920097.1716 7200000000 2.8757720389199e+15 2.0705443761296e+25
0	23173290 10512528 1198342 2396710 19975.615 39948.415 299594 7199852195.4162 7199926092.9387 2.1570435882445e+15 1.5530474714539e+25
1	33685818 13696926 1198344 2396712 19975.65 39948.45 399457 7199840204.4252 7199920096.9716 2.8760425253859e+15 2.0707161491507e+25
0	47382744 10511760 2396719 3595087 39948.6 59921.4 299593 7199778296.4127 7199852194.6763 2.1570142489517e+15 1.5530104075267e+25
1	57894504 13696908 2396714 3595084 39948.5 59921.35 399458 7199760310.6098 7199840204.2252 2.8760178112585e+15 2.0706753778272e+25
0	71591412 10511297 3595090 4793458 59921.415 79894.215 299594 7199704397.3971 7199778296.4126 2.1569993090672e+15 1.5529837110748e+25
1	82102709 13696909 3595088 4793456 59921.4 79894.2 399457 7199680416.1238 7199760310.4098 2.8759786971773e+15 2.0706242390804e+25
0	95799618 10513842 4793467 5991826 79894.4 99867.015 299592 7199630497.654 7199704396.6571 2.156962769843e+15 1.5529414639008e+25
1	106313460 13696941 4793460 5991832 79894.25 99867.15 399459 7199600520.3167 7199680415.9238 2.8759611817828e+15 2.0705886509521e+25
0	120010401 10809993 5991835 7190206 99867.2 119840.015 299594 7199556596.4366 7199630496.9141 2.1569550290824e+15 1.5529199508418e+25
1	130820394 14093692 5991836 7190204 99867.2 119840 399457 7199520624.0405 7199600520.1167 2.8759148674719e+15 2.070532328894e+25
0	144914086 10812488 7190206 8388574 119840.015 139812.815 299593 7199482695.1659 7199556596.4367 2.1569256891878e+15 1.5528828873569e+25
1	155726574 14096401 7190208 8388578 119840.05 139812.9 399458 7199440726.6952 7199520623.8405 2.8758901516091e+15 2.0704915571117e+25
0	169822975 10811762 8388583 9586951 139813 159785.8 299593 7199408792.3596 7199482694.426 2.1569035486949e+15 1.5528510073379e+25
1	180634737 14096401 8388580 9586952 139812.95 159785.8 399458 7199360828.4285 7199440726.4952 2.8758582357913e+15 2.070445601904e+25
0	194731138 11009283 9586954 10785322 159785.815 179758.615 299594 7199334889.5502 7199408792.3597 2.1568886073008e+15 1.5528243103483e+25
1	205740421 14358140 9586956 10785324 159785.85 179758.65 399457 7199280929.4914 7199360828.2285 2.8758191203378e+15 2.0703944637308e+25
0	220098561 11111520 10785331 11983699 179758.8 199731.6 299593 7199260985.2293 7199334888.8103 2.15685926694e+15 1.552787247174e+25
1	231210081 14495890 10785326 11983696 179758.7 199731.55 399458 7199201029.485 7199280929.2913 2.8757944031728e+15 2.0703536916033e+25
0	245705971 11111889 11983702 13182070 199731.615 219704.415 299594 7199187080.9118 7199260985.2294 2.1568443249436e+15 1.5527605499717e+25
1	256817860 14495812 11983700 13182068 199731.6 219704.4 399457 7199121128.76 7199201029.285 2.8757552871713e+15 2.0703025536612e+25
0	271313672 11111001 13182079 14380438 219704.6 239677.215 299592 7199113175.823 7199187080.1718 2.1568077851683e+15 1.5527183042951e+25
1	282424673 14495888 13182072 14380444 219704.45 239677.35 399459 7199041226.7616 7199121128.56 2.8757377681782e+15 2.0702669639215e+25
0	296920561 11111261 14380447 15578818 239677.4 259650.215 299594 7199039269.2409 7199113175.0831 2.1568000417602e+15 1.5526967897146e+25
1	308031822 14495813 14380448 15578816 239677.4 259650.2 399457 7198961324.2939 7199041226.5615 2.8756914525071e+15 2.0702106434754e+25
0	322527635 11111755 15578818 16777186 259650.215 279623.015 299593 7198965362.6134 7199039269.241 2.156770700782e+15 1.5526597269605e+25
1	333639390 14495850 15578820 16777190 259650.25 279623.1 399458 7198881420.7102 7198961324.0939 2.8756667336053e+15 2.0701698708874e+25
0	348135240 11111520 16777195 17975563 279623.2 299596 299593 7198891454.5026 7198965361.8734 2.1567485586859e+15 1.5526278469238e+25
1	359246760 14495851 16777192 17975564 279623.15 299596 399458 7198801516.2503 7198881420.5102 2.8756348153072e+15 2.0701239156787e+25
0	373742611 11111499 17975566 19173934 299596.015 319568.815 299594 7198817546.4068 7198891454.5027 2.1567336151901e+15 1.5526011491992e+25
1	384854110 14495810 17975568 19173936 299596.05 319568.85 399457 7198721611.1212 7198801516.0503 2.8755956979341e+15 2.0700727783121e+25
0	399349920 11111460 19173943 20372311 319569 339541.8 299593 7198743636.7995 7198817545.6668 2.1567042737621e+15 1.5525640867792e+25
1	410461380 14495828 19173938 20372308 319568.9 339541.75 399458 7198641704.8784 7198721610.9212 2.8755709777299e+15 2.0700320053791e+25
0	424957208 11111594 20372314 21570682 339541.815 359514.615 299594 7198669727.1643 7198743636.7996 2.1566893296644e+15 1.5525373888426e+25
1	436068802 14495870 20372312 21570680 339541.8 359514.6 399457 7198561797.9569 7198641704.6784 2.875531859807e+15 2.0699808682411e+25
0	450564672 11111243 21570691 22769050 359514.8 379487.415 299592 7198595816.7541 7198669726.4244 2.1566527893225e+15 1.5524951446411e+25
1	461675915 14495919 21570684 22769056 359514.65 379487.55 399459 7198481889.7659 7198561797.7569 2.8755143372162e+15 2.0699452768922e+25
0	476171834 11111633 22769059 23967430 379487.6 399460.415 299594 7198521904.8735 7198595816.014 2.1566450432959e+15 1.5524736285819e+25
1	487283467 14495806 22769060 23967428 379487.6 399460.4 399457 7198401981.0638 7198481889.5659 2.8754680201837e+15 2.0698889580566e+25
0	501779273 11111591 23967430 25165798 399460.415 419433.215 299593 7198447992.9533 7198521904.8736 2.1566157012466e+15 1.5524365665767e+25
1	512890864 14495858 23967432 25165802 399460.45 419433.3 399458 7198322071.2803 7198401980.8637 2.8754432982415e+15 2.069848184662e+25
0	527386722 11111586 25165807 26364175 419433.4 439406.2 299593 7198374079.534 7198447992.2133 2.1565935575616e+15 1.5524046865438e+25
1	538498308 14495850 25165804 26364176 419433.35 439406.2 399458 7198242160.6274 7198322071.0803 2.875411377464e+15 2.0698022294545e+25
0	552994158 11111921 26364178 27562546 439406.215 459379.015 299594 7198300166.1382 7198374079.5339 2.1565786119619e+15 1.5523779880813e+25
1	564106079 14495813 26364180 27562548 439406.25 459379.05 399457 7198162249.2655 7198242160.4274 2.8753722581701e+15 2.0697510928934e+25
0	578601892 11111756 27562555 28760923 459379.2 479352 299593 7198226251.2635 7198300165.3982 2.1565492694639e+15 1.5523409264122e+25
1	589713648 14495844 27562550 28760920 459379.1 479351.95 399458 7198082336.8199 7198162249.0655 2.8753475349251e+15 2.0697103191536e+25
0	604209492 11111699 28760926 29959294 479352.015 499324.815 299594 7198152336.281 7198226251.2636 2.1565343232621e+15 1.5523142277376e+25
1	615321191 14495819 28760924 29959292 479352 499324.8 399457 7198002423.7049 7198082336.6199 2.875308415082e+15 2.0696591828222e+25
0	629817010 11111477 29959303 31157662 499325 519297.615 299592 7198078420.5507 7198152335.5409 2.1564977823549e+15 1.5522719850138e+25
1	640928487 14495893 29959296 31157668 499324.85 519297.75 399459 7197922509.2828 7198002423.5048 2.875290888892e+15 2.0696235898629e+25
0	655424380 11111571 31157671 32356042 519297.8 539270.615 299594 7198004503.3615 7198078419.8106 2.1564900336994e+15 1.5522504674612e+25
1	666535951 14495822 31157672 32356040 519297.8 539270.6 399457 7197842594.3749 7197922509.0827 2.8752445704966e+15 2.0695672726364e+25
0	681031773 11111609 32356042 33554410 539270.615 559243.415 299593 7197930586.1504 7198004503.3616 2.1564606905828e+15 1.552213406211e+25
1	692143382 14495864 32356044 33554414 539270.65 559243.5 399458 7197762678.3973 7197842594.1748 2.8752198455152e+15 2.0695264984377e+25
0	706639246 11111535 33554419 34752787 559243.6 579216.4 299593 7197856667.4249 7197930585.4102 2.1564385453102e+15 1.552181526184e+25
1	717750781 14495850 33554416 34752788 559243.55 579216.4 399458 7197682761.5149 7197762678.1973 2.8751879222572e+15 2.0694805432307e+25
0	732246631 11111332 34752790 35951158 579216.415 599189.215 299594 7197782748.673 7197856667.4248 2.156423597595e+15 1.5521548269676e+25
1	743357963 14495835 34752792 35951160 579216.45 599189.25 399457 7197602843.9443 7197682761.3148 2.8751488010406e+15 2.0694294074732e+25
0	757853798 11111530 35951167 37149535 599189.4 619162.2 299593 7197708828.4305 7197782747.9328 2.1563942540117e+15 1.5521177660277e+25
1	768965328 14495853 35951162 37149532 599189.3 619162.15 399458 7197522925.3041 7197602843.7443 2.8751240747561e+15 2.0693886329293e+25
0	783461181 11111567 37149538 38347906 619162.215 639135.015 299594 7197634908.1495 7197708828.4304 2.1563793056911e+15 1.5520910665947e+25
1	794572748 14495827 37149536 38347904 619162.2 639135 399457 7197443005.961 7197522925.1041 2.8750849529917e+15 2.0693374974037e+25
0	809068575 11111617 38347915 39546274 639135.2 659107.815 299592 7197560987.1171 7197634907.4093 2.1563427642351e+15 1.5520488253725e+25
1	820180192 14495871 38347908 39546280 639135.05 659107.95 399459 7197363085.3275 7197443005.7609 2.8750674232006e+15 2.0693019028321e+25
0	834676063 11111497 39546283 40744654 659108 679080.815 299594 7197487064.6142 7197560986.377 2.1563350129523e+15 1.5520273063295e+25
1	845787560 14495790 39546284 40744652 659108 679080.8 399457 7197283164.2245 7197363085.1274 2.8750211034436e+15 2.0692455872174e+25
0	860283350 11111487 40744654 41943022 679080.815 699053.615 299593 7197413142.1003 7197487064.6142 2.1563056687578e+15 1.5519902458195e+25
1	871394837 14495867 40744656 41943026 679080.85 699053.7 399458 7197203242.0201 7197283164.0244 2.8749963754218e+15 2.069204812214e+25
0	885890704 11111762 41943031 43141399 699053.8 719026.6 299593 7197339218.0395 7197413141.3601 2.1562835218974e+15 1.5519583657986e+25
1	897002466 14495855 41943028 43141400 699053.75 719026.6 399458 7197123318.9236 7197203241.82 2.8749644496812e+15 2.0691588570052e+25
0	911498321 11111532 43141402 44339770 719026.615 738999.415 299594 7197265293.9708 7197339218.0394 2.1562685720699e+15 1.5519316658335e+25
1	922609853 14495825 43141404 44339772 719026.65 738999.45 399457 7197043395.1575 7197123318.7235 2.8749253265434e+15 2.0691077220541e+25
0	937105678 11111868 44339779 45538147 738999.6 758972.4 299593 7197191368.4015 7197265293.2306 2.1562392274057e+15 1.5518946056296e+25
1	948217546 14495850 44339774 45538144 738999.5 758972.35 399458 7196963470.2916 7197043394.9574 2.8749005972183e+15 2.0690669467056e+25
0	962713396 11112130 45538150 46736518 758972.415 778945.215 299594 7197117442.8343 7197191368.4015 2.1562242769773e+15 1.5518679054545e+25
1	973825526 14495822 45538148 46736516 758972.4 778945.2 399457 7196883544.732 7196963470.0915 2.8748614735306e+15 2.0690158119836e+25
0	988321348 11111415 46736527 47934886 778945.4 798918.015 299592 7197043516.4678 7197117442.0941 2.1561877349667e+15 1.551825665726e+25
1	999432763 14495905 46736520 47934892 778945.25 798918.15 399459 7196803617.9023 7196883544.5319 2.8748439401395e+15 2.0689802158024e+25
0	1013928668 11111201 47934895 49133266 798918.2 818891.015 299594 7196969588.6174 7197043515.7276 2.1561799810475e+15 1.5518041451801e+25
1	1025039869 14495801 47934896 49133264 798918.2 818891 399457 7196723690.5747 7196803617.7022 2.8747976190202e+15 2.068923901799e+25
0	1039535670 11111446 49133266 50331634 818891.015 838863.815 299593 7196895660.8005 7196969588.6175 2.1561506357789e+15 1.5517670854161e+25
1	1050647116 14495867 49133268 50331638 818891.05 838863.9 399458 7196643762.1515 7196723690.3746 2.8747728879559e+15 2.0688831259885e+25
0	1065142983 11111474 50331643 51530011 838864 858836.8 299593 7196821731.4549 7196895660.0602 2.1561284873315e+15 1.5517352054032e+25
1	1076254457 14495853 50331640 51530012 838863.95 858836.8 399458 7196563832.8583 7196643761.9514 2.874740959734e+15 2.0688371707807e+25
0	1090750310 11111570 51530014 52728382 858836.815 878809.615 299594 7196747802.0791 7196821731.4548 2.1561135353986e+15 1.5517085046996e+25
1	1101861880 14495777 51530016 52728384 858836.85 878809.65 399457 7196483902.8686 7196563832.6582 2.8747018346742e+15 2.0687860366358e+25
0	1116357657 11111386 52728391 53926759 878809.8 898782.6 299593 7196673871.2573 7196747801.3389 2.1560841896689e+15 1.5516714452545e+25
1	1127469043 14495871 52728386 53926756 878809.7 898782.55 399458 7196403971.7816 7196483902.6685 2.8746771023063e+15 2.0687452604802e+25
0	1141964914 11111537 53926762 55125130 898782.615 918755.415 299594 7196599940.3662 7196673871.2572 2.1560692371397e+15 1.5516447443477e+25
1	1153076451 14495813 53926760 55125128 898782.6 918755.4 399457 7196324040.0247 7196403971.5815 2.8746379766964e+15 2.0686941265644e+25
0	1167572264 11111583 55125139 56323498 918755.6 938728.215 299592 7196526008.7123 7196599939.6259 2.1560326945747e+15 1.5516025061136e+25
1	1178683847 14495882 55125132 56323504 918755.45 938728.35 399459 7196244106.9723 7196324039.8246 2.8746204397047e+15 2.0686585287734e+25
0	1193179729 11111609 56323507 57521878 938728.4 958701.215 299594 7196452075.5425 7196526007.9721 2.1560249380301e+15 1.5515809840813e+25
1	1204291338 14495825 56323508 57521876 938728.4 958701.2 399457 7196164173.4214 7196244106.7722 2.8745741172208e+15 2.0686022163789e+25
0	1218787163 11111259 57521878 58720246 958701.215 978674.015 299593 7196378142.3841 7196452075.5426 2.1559955916838e+15 1.5515439250587e+25
1	1229898422 14495853 57521880 58720250 958701.25 978674.1 399458 7196084238.8004 7196164173.2213 2.8745493831151e+15 2.068561439764e+25
0	1244394275 11111499 58720255 59918623 978674.2 998647 299593 7196304207.7286 7196378141.6439 2.1559734416429e+15 1.5515120450445e+25
1	1255505774 14495846 58720252 59918624 978674.15 998647 399458 7196004303.2852 7196084238.6003 2.8745174524113e+15 2.0685154845571e+25
0	1270001620 11390936 59918626 61116994 998647.015 1018619.815 299594 7196230273.0361 7196304207.7287 2.1559584875972e+15 1.5514853435927e+25
1	1281392556 14868225 59918628 61116996 998647.05 1018619.85 399457 7195924367.0702 7196004303.0851 2.8744783254272e+15 2.0684643512157e+25
0	1296260781 11411089 61117003 62315371 1018620 1038592.8 299593 7196156336.8571 7196230272.2959 2.155929140793e+15 1.5514482848936e+25
1	1307671870 14895311 61116998 62315368 1018619.9 1038592.75 399458 7195844429.7849 7195924366.8701 2.8744535900176e+15 2.0684235742556e+25
0	1322567181 11410576 62315374 63513742 1038592.815 1058565.615 299594 7196082400.6641 7196156336.8571 2.1559141861462e+15 1.5514215832318e+25
1	1333977757 14895275 62315372 63513740 1038592.8 1058565.6 399457 7195764491.8067 7195844429.5848 2.8744144624852e+15 2.0683724411461e+25
0	1348873032 11410790 63513751 64712110 1058565.8 1078538.415 299592 7196008463.7122 7196082399.9237 2.1558776430267e+15 1.5513793464923e+25
1	1360283822 14895379 63513744 64712116 1058565.65 1078538.55 399459 7195684552.5269 7195764491.6065 2.8743969218903e+15 2.0683368417427e+25
0	1375179201 11411266 64712119 65910490 1078538.6 1098511.415 299594 7195934525.2382 7196008462.9719 2.1558698838636e+15 1.551357822984e+25
1	1386590467 14895268 64712120 65910488 1078538.6 1098511.4 399457 7195604612.7773 7195684552.3268 2.874350598043e+15 2.0682805309596e+25
0	1401485735 11411383 65910490 67108858 1098511.415 1118484.215 299593 7195860586.7636 7195934525.2383 2.1558405364412e+15 1.5513207647055e+25
1	1412897118 14895313 65910492 67108862 1098511.45 1118484.3 399458 7195524671.9354 7195604612.5772 2.8743258608954e+15 2.0682397535404e+25
0	1427792431 11411467 67108867 68307235 1118484.4 1138457.2 299593 7195786646.7581 7195860586.0234 2.1558183847973e+15 1.5512888846772e+25
1	1439203898 14895306 67108864 68307236 1118484.35 1138457.2 399458 7195444730.1911 7195524671.7353 2.8742939277073e+15 2.0681937983317e+25
0	1454099204 11411375 68307238 69505606 1138457.215 1158430.015 299594 7195712706.7911 7195786646.758 2.1558034286436e+15 1.5512621824845e+25
1	1465510579 14895266 68307240 69505608 1138457.25 1158430.05 399457 7195364787.7768 7195444729.991 2.8742547988e+15 2.0681426657963e+25
0	1480405845 11411014 69505615 70703983 1158430.2 1178403 299593 7195638765.3306 7195712706.0508 2.1557740807761e+15 1.551225124548e+25
1	1491816859 14895307 69505610 70703980 1158430.1 1178402.95 399458 7195284844.271 7195364787.5766 2.8742300603483e+15 2.068101888032e+25
0	1506712166 11411292 70703986 71902354 1178403.015 1198375.815 299594 7195564823.8327 7195638765.3305 2.1557591240259e+15 1.5511984221519e+25
1	1518123458 14895232 70703984 71902352 1178403 1198375.8 399457 7195204900.062 7195284844.0709 2.8741909308909e+15 2.068050755726e+25
0	1533018690 11411038 71902363 73100722 1198376 1218348.615 299592 7195490881.607 7195564823.0924 2.1557225803602e+15 1.5511561869195e+25
1	1544429728 14895319 71902356 73100728 1198375.85 1218348.75 399459 7195124954.5824 7195204899.8618 2.8741733866938e+15 2.0680151547128e+25
0	1559325047 11411067 73100731 74299102 1218348.8 1238321.615 299594 7195416937.8094 7195490880.8666 2.1557148185713e+15 1.5511346619254e+25
1	1570736114 14895275 73100732 74299100 1218348.8 1238321.6 399457 7195045008.6125 7195124954.3823 2.874127061483e+15 2.0679588455413e+25
0	1585631389 11411148 74299102 75497470 1238321.615 1258294.415 299593 7195342994.0333 7195416937.8094 2.1556854700731e+15 1.5510976043917e+25
1	1597042537 14895300 74299104 75497474 1238321.65 1258294.5 399458 7194965061.5383 7195045008.4124 2.874102321291e+15 2.067918067315e+25
0	1611937837 11411356 75497479 76695847 1258294.6 1278267.4 299593 7195269048.7223 7195342993.2929 2.1556633168449e+15 1.5510657243767e+25
1	1623349193 14895305 75497476 76695848 1258294.55 1278267.4 399458 7194885113.5936 7194965061.3381 2.8740703856196e+15 2.067872112107e+25
0	1638244498 11411309 76695850 77894218 1278267.415 1298240.215 299594 7195195103.4148 7195269048.7222 2.1556483585764e+15 1.5510390214337e+25
1	1649655807 14894894 76695852 77894220 1278267.45 1298240.25 399457 7194805164.9592 7194885113.3935 2.874031254789e+15 2.0678209803781e+25
0	1664550701 11410973 77894227 79092595 1298240.4 1318213.2 299593 7195121156.6063 7195195102.6744 2.1556190096219e+15 1.5510019642263e+25
1	1675961674 14895315 77894222 79092592 1298240.3 1318213.15 399458 7194725215.2196 7194805164.7591 2.8740065132925e+15 2.0677802018067e+25
0	1690856989 11411196 79092598 80290966 1318213.215 1338186.015 299594 7195047209.7565 7195121156.6063 2.1556040507615e+15 1.5509752610867e+25
1	1702268185 14895264 79092596 80290964 1318213.2 1338186 399457 7194645264.8097 7194725215.0195 2.8739673819112e+15 2.0677290703066e+25
0	1717163449 11410867 80290975 81489334 1338186.2 1358158.815 299592 7194973262.1551 7195047209.0161 2.1555675065209e+15 1.5509330273204e+25
1	1728574316 14895386 80290968 81489340 1338186.05 1358158.95 399459 7194565313.1101 7194645264.6096 2.8739498341116e+15 2.0676934676839e+25
0	1743469702 11411040 81489343 82687714 1358159 1378131.815 299594 7194899313.061 7194973261.4148 2.1555597420951e+15 1.5509115008251e+25
1	1754880742 14895263 81489344 82687712 1358159 1378131.8 399457 7194485360.9051 7194565312.91 2.8739035075348e+15 2.0676371601213e+25
0	1769776005 11411476 82687714 83886082 1378131.815 1398104.615 299593 7194825363.9492 7194899313.0611 2.155530392525e+15 1.5508744440424e+25
1	1781187481 14895301 82687716 83886086 1378131.85 1398104.7 399458 7194405407.6294 7194485360.7049 2.8738787642993e+15 2.0675963810903e+25
0	1796082782 11410115 83886091 85084459 1398104.8 1418077.6 299593 7194751413.3256 7194825363.2087 2.1555082377019e+15 1.5508425640258e+25
1	1807492897 14895307 83886088 85084460 1398104.75 1418077.6 399458 7194325453.4647 7194405407.4292 2.8738468261445e+15 2.0675504258835e+25
0	1822388204 11410880 85084462 86282830 1418077.615 1438050.415 299594 7194677462.6873 7194751413.3256 2.1554932773249e+15 1.5508158603423e+25
1	1833799084 14895262 85084464 86282832 1418077.65 1438050.45 399457 7194245498.5938 7194325453.2645 2.8738076933879e+15 2.0674992949581e+25
0	1848694346 11411839 86282839 87481207 1438050.6 1458023.4 299593 7194603510.5596 7194677461.9468 2.1554639272943e+15 1.5507788038798e+25
1	1860106185 14895315 86282834 87481204 1438050.5 1458023.35 399458 7194165542.6523 7194245498.3937 2.8737829488478e+15 2.0674585155819e+25
0	1875001500 11411421 87481210 88679578 1458023.415 1477996.215 299594 7194529558.3868 7194603510.5597 2.1554489663094e+15 1.5507520999771e+25
1	1886412921 14895264 87481208 88679576 1458023.4 1477996.2 399457 7194085586.0222 7194165542.4521 2.8737438155424e+15 2.0674073848884e+25
0	1901308185 11411045 88679587 89877946 1477996.4 1497969.015 299592 7194455605.4669 7194529557.6464 2.1554124215135e+15 1.5507098677052e+25
1	1912719230 14895244 88679580 89877952 1477996.25 1497969.15 399459 7194005628.085 7194085585.822 2.8737262641377e+15 2.0673717806533e+25
0	1927614474 11411252 89877955 91076326 1497969.2 1517942.015 299594 7194381651.0363 7194455604.7264 2.1554046544565e+15 1.5506883397176e+25
1	1939025726 14895428 89877956 91076324 1497969.2 1517942 399457 7193925669.6775 7194005627.8848 2.8736799361959e+15 2.0673154747018e+25
0	1953921154 11410935 91076326 92274694 1517942.015 1537914.815 299593 7194307696.587 7194381651.0364 2.1553753038042e+15 1.5506512836715e+25
1	1965332089 14895354 91076328 92274698 1517942.05 1537914.9 399458 7193845710.1812 7193925669.4773 2.8736551899168e+15 2.0672746948667e+25
0	1980227443 11411121 92274703 93473071 1537915 1557887.8 299593 7194233740.678 7194307695.8465 2.1553531473894e+15 1.5506194036583e+25
1	1991638564 14895382 92274700 93473072 1537914.95 1557887.8 399458 7193765749.7779 7193845709.9811 2.8736232492759e+15 2.0672287396582e+25
0	2006533946 11410891 93473074 94671442 1557887.815 1577860.615 299594 7194159784.7075 7194233740.6781 2.1553381849033e+15 1.550592699234e+25
1	2017944837 14895276 93473076 94671444 1557887.85 1577860.65 399457 7193685788.7041 7193765749.5778 2.8735841145945e+15 2.0671776095386e+25
0	2032840113 11411002 94671451 95869819 1577860.8 1597833.6 299593 7194085827.2772 7194159783.9669 2.1553088337978e+15 1.550555643519e+25
1	2044251115 14895306 94671446 95869816 1577860.7 1597833.55 399458 7193605826.5416 7193685788.504 2.8735593670104e+15 2.0671368293584e+25
0	2059146421 11411228 95869822 97068190 1597833.615 1617806.415 299594 7194011869.7821 7194085827.2772 2.1552938707092e+15 1.5505289388831e+25
1	2070557649 14895281 95869820 97068188 1597833.6 1617806.4 399457 7193525863.672 7193605826.3415 2.8735202317785e+15 2.0670856994684e+25
0	2085452930 11411139 97068199 98266558 1617806.6 1637779.215 299592 7193937911.5039 7194011869.0415 2.1552573253434e+15 1.5504867080855e+25
1	2096864069 14895358 97068192 98266564 1617806.45 1637779.35 399459 7193445899.5313 7193525863.4718 2.8735026767695e+15 2.0670500936232e+25
0	2111759427 11411244 98266567 99464938 1637779.4 1657752.215 299594 7193863951.7525 7193937910.7635 2.1552495556556e+15 1.5504651786066e+25
1	2123170671 14895266 98266568 99464936 1637779.4 1657752.2 399457 7193365934.9024 7193445899.3311 2.8734563474627e+15 2.0669937892836e+25
0	2138065937 11576972 99464938 100663306 1657752.215 1677725.015 299593 7193789992.0108 7193863951.7526 2.155220203932e+15 1.5504281233131e+25
1	2149642909 15116418 99464940 100663310 1657752.25 1677725.1 399458 7193285969.1659 7193365934.7022 2.8734315981373e+15 2.0669530086415e+25
0	2164759327 11710739 100663315 101861683 1677725.2 1697698 299593 7193716030.76 7193789991.2702 2.1551980459214e+15 1.5503962432982e+25
1	2176470066 15294754 100663312 101861684 1677725.15 1697698 399458 7193206002.5585 7193285968.9657 2.8733996550113e+15 2.0669070534334e+25
0	2191764820 11710830 101861686 103060054 1697698.015 1717670.815 299594 7193642069.4932 7193716030.7599 2.1551830813235e+15 1.5503695381297e+25
1	2203475650 15294741 101861688 103060056 1697698.05 1717670.85 399457 7193126035.2626 7193206002.3584 2.873360518405e+15 2.0668559241204e+25
0	2218770391 11710569 103060063 104258431 1717671 1737643.8 299593 7193568106.7086 7193642068.7527 2.1551537291409e+15 1.5503324831591e+25
1	2230480960 15294770 103060058 104258428 1717670.9 1737643.75 399458 7193046066.8592 7193126035.0624 2.8733357677744e+15 2.0668151431331e+25
0	2245775730 11710397 104258434 105456802 1737643.815 1757616.615 299594 7193494143.9033 7193568106.7087 2.1551387639358e+15 1.5503057777724e+25
1	2257486127 15294449 104258432 105456800 1737643.8 1757616.6 399457 7192966097.785 7193046066.659 2.8732966306168e+15 2.0667640140489e+25
0	2272780576 11710541 105456811 106655170 1757616.8 1777589.415 299592 7193420180.3389 7193494143.1628 2.155102218021e+15 1.5502635484792e+25
1	2284491117 15294760 105456804 106655176 1757616.65 1777589.55 399459 7192886127.4214 7192966097.5849 2.8732790720034e+15 2.0667284065944e+25
0	2299785877 11710617 106655179 107853550 1777589.6 1797562.415 299594 7193346215.2726 7193420179.5982 2.1550944457085e+15 1.5502420175186e+25
1	2311496494 15294784 106655180 107853548 1777589.6 1797562.4 399457 7192806156.551 7192886127.2212 2.8732327413291e+15 2.0666721038636e+25
0	2326791278 11710755 107853550 109051918 1797562.415 1817535.215 299593 7193272250.1962 7193346215.2727 2.1550650929102e+15 1.5502049629734e+25
1	2338502033 15294713 107853552 109051922 1797562.45 1817535.3 399458 7192726184.6094 7192806156.3508 2.8732079889584e+15 2.0666313224167e+25
0	2353796746 11710782 109051927 110250295 1817535.4 1837508.2 299593 7193198283.6275 7193272249.4556 2.1550429333021e+15 1.5501730829547e+25
1	2365507528 15294763 109051924 110250296 1817535.35 1837508.2 399458 7192646211.7784 7192726184.4092 2.8731760433472e+15 2.0665853672099e+25
0	2380802291 11710369 110250298 111448666 1837508.215 1857481.015 299594 7193124317.0164 7193198283.6276 2.1550279665921e+15 1.5501463770419e+25
1	2392512660 15294738 110250300 111448668 1837508.25 1857481.05 399457 7192566238.2406 7192646211.5782 2.8731369048133e+15 2.0665342387004e+25
0	2407807398 11710965 111448675 112647043 1857481.2 1877454 299593 7193050348.8733 7193124316.2757 2.1549986133219e+15 1.5501093228014e+25
1	2419518363 15294776 111448670 112647040 1857481.1 1877453.95 399458 7192486263.6315 7192566238.0403 2.8731121511371e+15 2.0664934569083e+25
0	2434813139 11710854 112647046 113845414 1877454.015 1897426.815 299594 7192976380.7343 7193050348.8733 2.1549836459961e+15 1.5500826166583e+25
1	2446523993 15294749 112647044 113845412 1877454 1897426.8 399457 7192406288.3327 7192486263.4313 2.873073012054e+15 2.0664423286307e+25
0	2461818742 11710878 113845423 115043782 1897427 1917399.615 299592 7192902411.8379 7192976379.9937 2.1549470995194e+15 1.5500403888515e+25
1	2473529620 15294802 113845416 115043788 1897426.85 1917399.75 399459 7192326311.7268 7192406288.1325 2.8730554498333e+15 2.0664067195637e+25
0	2488824422 11710970 115043791 116242162 1917399.8 1937372.615 299594 7192828441.4498 7192902411.0973 2.1549393245746e+15 1.5500188563986e+25
1	2500535392 15294731 115043792 116242160 1917399.8 1937372.6 399457 7192246334.6503 7192326311.5266 2.8730091177926e+15 2.0663504184442e+25
0	2515830123 11710876 116242162 117440530 1937372.615 1957345.415 299593 7192754471.004 7192828441.4499 2.1549099706886e+15 1.5499818025836e+25
1	2527540999 15294781 116242164 117440534 1937372.65 1957345.5 399458 7192166356.4829 7192246334.4501 2.8729843623764e+15 2.0663096361931e+25
0	2542835780 11710620 117440539 118638907 1957345.6 1977318.4 299593 7192680499.0998 7192754470.2634 2.1548878094778e+15 1.5499499225539e+25
1	2554546400 15294774 117440536 118638908 1957345.55 1977318.4 399458 7192086377.4094 7192166356.2827 2.8729524142774e+15 2.0662636809846e+25
0	2569841174 11710730 118638910 119837278 1977318.415 1997291.215 299594 7192606527.1458 7192680499.0997 2.15487284065e+15 1.5499232158895e+25
1	2581551904 15294728 118638912 119837280 1977318.45 1997291.25 399457 7192006397.6649 7192086377.2091 2.8729132738171e+15 2.0662125532809e+25
0	2596846632 11710614 119837287 121035655 1997291.4 2017264.2 299593 7192532553.6951 7192606526.4051 2.1548434863049e+15 1.5498861623975e+25
1	2608557246 15294810 119837282 121035652 1997291.3 2017264.15 399458 7191926416.8289 7192006397.4647 2.8728885170951e+15 2.0661717706848e+25
0	2623852056 11710634 121035658 122234026 2017264.215 2037237.015 299594 7192458580.2298 7192532553.6952 2.1548285168726e+15 1.5498594555193e+25
1	2635562690 15294716 121035656 122234024 2017264.2 2037237 399457 7191846435.2875 7191926416.6286 2.8728493760838e+15 2.0661206432107e+25
0	2650857406 11710688 122234035 123432394 2037237.2 2057209.815 299592 7192384606.0237 7192458579.4891 2.1547919698345e+15 1.5498172291998e+25
1	2662568094 15294818 122234028 123432400 2037237.05 2057209.95 399459 7191766452.4744 7191846435.0872 2.8728318102569e+15 2.0660850325337e+25
0	2677862912 11710425 123432403 124630774 2057210 2077182.815 299594 7192310630.3134 7192384605.2831 2.1547841922626e+15 1.5497956952629e+25
1	2689573337 15294707 123432404 124630772 2057210 2077182.8 399457 7191686469.1696 7191766452.2742 2.8727854768497e+15 2.0660287330259e+25
0	2704868044 11710754 124630774 125829142 2077182.815 2097155.615 299593 7192236654.6146 7192310630.3135 2.1547548373093e+15 1.5497586422076e+25
1	2716578798 15294771 124630776 125829146 2077182.85 2097155.7 399458 7191606484.7596 7191686468.9693 2.8727607183852e+15 2.0659879499678e+25
0	2731873569 11710625 125829151 127027519 2097155.8 2117128.6 299593 7192162677.3823 7192236653.874 2.1547326745166e+15 1.5497267621975e+25
1	2743584194 15294767 125829148 127027520 2097155.75 2117128.6 399458 7191526499.4784 7191606484.5594 2.8727287677995e+15 2.0659419947598e+25
0	2758878961 11710549 127027522 128225890 2117128.615 2137101.415 299594 7192088700.1178 7192162677.3824 2.154717703575e+15 1.5497000547876e+25
1	2770589510 15294729 127027524 128225892 2117128.65 2137101.45 399457 7191446513.5042 7191526499.2782 2.8726896254126e+15 2.0658908678627e+25
0	2785884239 11710497 128225899 129424267 2137101.6 2157074.4 299593 7192014721.3247 7192088699.377 2.1546883481482e+15 1.549663002035e+25
1	2797594736 15294766 128225894 129424264 2137101.5 2157074.35 399458 7191366526.4257 7191446513.304 2.8726648656421e+15 2.0658500844594e+25
0	2812889502 11710910 129424270 130622638 2157074.415 2177047.215 299594 7191940742.528 7192014721.3246 2.1546733766028e+15 1.5496362944124e+25
1	2824600412 15294750 129424268 130622636 2157074.4 2177047.2 399457 7191286538.6761 7191366526.2255 2.8726257227037e+15 2.0657989577913e+25
0	2839895162 11710589 130622647 131821006 2177047.4 2197020.015 299592 7191866763.0141 7191940741.7872 2.1546368290108e+15 1.5495940695915e+25
1	2851605751 15294802 130622640 131821012 2177047.25 2197020.15 399459 7191206549.6317 7191286538.4759 2.8726081532703e+15 2.0657633455049e+25
0	2866900553 11710605 131821015 133019386 2197020.2 2216993.015 299594 7191792781.9737 7191866762.2734 2.1546290488105e+15 1.5495725341692e+25
1	2878611158 15294728 131821016 133019384 2197020.2 2216993 399457 7191126560.0847 7191206549.4315 2.8725618184941e+15 2.0657070476059e+25
0	2893905886 11710703 133019386 134217754 2216993.015 2236965.815 299593 7191718800.9194 7191792781.9737 2.1545996927711e+15 1.5495354818471e+25
1	2905616589 15294762 133019388 134217758 2216993.05 2236965.9 399458 7191046569.4661 7191126559.8845 2.8725370569825e+15 2.0656662637431e+25
0	2920911351 11710497 134217763 135416131 2236966 2256938.8 299593 7191644818.3763 7191718800.1787 2.1545775283761e+15 1.5495036018279e+25
1	2932621848 15294706 134217760 135416132 2236965.95 2256938.8 399458 7190966577.9518 7191046569.2658 2.8725051039098e+15 2.0656203085363e+25
0	2947916554 11710997 135416134 136614502 2256938.815 2276911.615 299594 7191570835.7837 7191644818.3763 2.1545625553294e+15 1.5494768936857e+25
1	2959627551 15294718 135416136 136614504 2256938.85 2276911.65 399457 7190886585.7358 7190966577.7516 2.8724659595937e+15 2.0655691824426e+25
0	2974922269 11710570 136614511 137812879 2276911.8 2296884.6 299593 7191496851.7302 7191570835.0429 2.1545331988355e+15 1.5494398416937e+25
1	2986632839 15294793 136614506 137812876 2276911.7 2296884.55 399458 7190806592.4481 7190886585.5356 2.8724411967759e+15 2.0655283982348e+25
0	3001927632 11710820 137812882 139011250 2296884.615 2316857.415 299594 7191422867.6227 7191496851.7303 2.1545182251798e+15 1.5494131333314e+25
1	3013638452 15294688 137812880 139011248 2296884.6 2316857.4 399457 7190726598.4638 7190806592.2478 2.8724020519102e+15 2.065477272373e+25
0	3028933140 11710674 139011259 140209618 2316857.6 2336830.215 299592 7191348882.7358 7191422866.8819 2.1544816770246e+15 1.5493709099962e+25
1	3040643814 15294712 139011252 140209624 2316857.45 2336830.35 399459 7190646603.178 7190726598.2635 2.8723844788675e+15 2.0654416584741e+25
0	3055938526 11711015 140209627 141407998 2336830.4 2356803.215 299594 7191274896.3739 7191348881.995 2.1544738941817e+15 1.5493493730687e+25
1	3067649541 15294736 140209628 141407996 2336830.4 2356803.2 399457 7190566607.4212 7190646602.9777 2.8723381427235e+15 2.0653853621866e+25
0	3082944277 11710563 141407998 142606366 2356803.215 2376776.015 299593 7191200910.0251 7191274896.3739 2.1544445370788e+15 1.5493123215127e+25
1	3094654840 15294755 141408000 142606370 2356803.25 2376776.1 399458 7190486610.5659 7190566607.221 2.8723133781645e+15 2.0653445775196e+25
0	3109949595 11710765 142606375 143804743 2376776.2 2396749 299593 7191126922.1063 7191200909.2844 2.1544223710893e+15 1.549280441496e+25
1	3121660360 15294773 142606372 143804744 2376776.15 2396749 399458 7190406612.8109 7190486610.3656 2.8722814226021e+15 2.0652986223108e+25
0	3136955133 11710695 143804746 145003114 2396749.015 2416721.815 299594 7191052934.2255 7191126922.1064 2.1544073959202e+15 1.549253732597e+25
1	3148665828 15294726 143804748 145003116 2396749.05 2416721.85 399457 7190326614.3847 7190406612.6107 2.8722422763582e+15 2.0652474970233e+25
0	3163960554 11710906 145003123 146201491 2416722 2436694.8 299593 7190978944.8292 7191052933.4847 2.1543780383545e+15 1.5492166813595e+25
1	3175671460 15294766 145003118 146201488 2416721.9 2436694.75 399458 7190246614.8583 7190326614.1844 2.8722175104926e+15 2.0652067120112e+25
0	3190966226 11710902 146201494 147399862 2436694.815 2456667.615 299594 7190904955.4343 7190978944.8293 2.1543630625888e+15 1.5491899722584e+25
1	3202677128 15294746 146201492 147399860 2436694.8 2456667.6 399457 7190166614.6339 7190246614.658 2.872178363697e+15 2.0651555869528e+25
0	3217971874 11710621 147399871 148598230 2456667.8 2476640.415 299592 7190830965.2468 7190904954.6935 2.1543265138852e+15 1.5491477504305e+25
1	3229682495 15294796 147399864 148598236 2456667.65 2476640.55 399459 7190086613.1373 7190166614.4336 2.8721607870463e+15 2.0651199714443e+25
0	3244977291 11710524 148598239 149796610 2476640.6 2496613.415 299594 7190756973.579 7190830964.5059 2.1543187284188e+15 1.5491262120259e+25
1	3256687815 15294726 148598240 149796608 2476640.6 2496613.4 399457 7190006611.1397 7190086612.937 2.8721144495342e+15 2.0650636767683e+25
0	3271982541 11710888 149796610 150994978 2496613.415 2516586.215 299593 7190682981.8271 7190756973.5791 2.1542893702242e+15 1.549089161196e+25
1	3283693429 15294769 149796612 150994982 2496613.45 2516586.3 399458 7189926608.0452 7190006610.9395 2.872089681925e+15 2.0650228912941e+25
0	3298988198 11710835 150994987 152193355 2516586.4 2536559.2 299593 7190608988.5972 7190682981.0862 2.154267202632e+15 1.5490572811704e+25
1	3310699033 15294747 150994984 152193356 2516586.35 2536559.2 399458 7189846604.0789 7189926607.8449 2.8720577238744e+15 2.0649769360863e+25
0	3325993780 11710983 152193358 153391726 2536559.215 2556532.015 299594 7190534995.3169 7190608988.5973 2.1542522253421e+15 1.5490305715175e+25
1	3337704763 15294732 152193360 153391728 2536559.25 2556532.05 399457 7189766599.4096 7189846603.8786 2.8720185757021e+15 2.064925811605e+25
0	3352999495 11710673 153391735 154590103 2556532.2 2576505 299593 7190461000.5878 7190534994.5761 2.1542228666845e+15 1.548993521006e+25
1	3364710168 15294796 153391730 154590100 2556532.1 2576504.95 399458 7189686593.6449 7189766599.2093 2.8719938067861e+15 2.0648850257857e+25
0	3380004964 11710635 154590106 155788474 2576505.015 2596477.815 299594 7190387005.8136 7190461000.5879 2.1542078887988e+15 1.5489668111524e+25
1	3391715599 15294717 154590104 155788472 2576505 2596477.8 399457 7189606587.2087 7189686593.4446 2.8719546580621e+15 2.0648339015337e+25
0	3407010316 11710451 155788483 156986842 2596478 2616450.615 299592 7190313010.2852 7190387005.0727 2.1541713395198e+15 1.5489245907933e+25
1	3418720767 15294799 155788476 156986848 2596477.85 2616450.75 399459 7189526579.4667 7189606587.0084 2.8719370778026e+15 2.0647982844153e+25
0	3434015566 11710712 156986851 158185222 2616450.8 2636423.615 299594 7190239013.2728 7190313009.5444 2.1541635514171e+15 1.5489030508939e+25
1	3445726278 15294725 156986852 158185220 2616450.8 2636423.6 399457 7189446571.2319 7189526579.2664 2.8718907389199e+15 2.064741991348e+25
0	3461021003 11710890 158185222 159383590 2636423.615 2656396.415 299593 7190165016.2041 7190239013.2729 2.1541341921464e+15 1.5488660008129e+25
1	3472731893 15294775 158185224 159383594 2636423.65 2656396.5 399458 7189366561.9249 7189446571.0316 2.8718659682621e+15 2.0647012050697e+25
0	3488026668 11711198 159383599 160581967 2656396.6 2676369.4 299593 7190091017.6314 7190165015.4631 2.1541120229564e+15 1.548834120786e+25
1	3499737866 15294790 159383596 160581968 2656396.55 2676369.4 399458 7189286551.7108 7189366561.7246 2.8718340077225e+15 2.0646552498627e+25
0	3515032656 11711625 160581970 161780338 2676369.415 2696342.215 299594 7190017019.045 7190091017.6315 2.1540970435518e+15 1.5488074103885e+25
1	3526744281 15294725 160581972 161780340 2676369.45 2696342.25 399457 7189206540.8054 7189286551.5105 2.8717948576193e+15 2.0646041261848e+25
0	3542039006 11710614 161780347 162978715 2696342.4 2716315.2 299593 7189943018.9531 7190017018.3039 2.1540676838119e+15 1.5487703606171e+25
1	3553749620 15294771 161780342 162978712 2696342.3 2716315.15 399458 7189126528.8278 7189206540.6051 2.8717700856545e+15 2.0645633395613e+25
0	3569044391 11711224 162978718 164177086 2716315.215 2736288.015 299594 7189869018.8226 7189943018.9532 2.1540527038063e+15 1.5487436500118e+25
1	3580755615 15294753 162978716 164177084 2716315.2 2736288 399457 7189046516.1412 7189126528.6275 2.8717309350011e+15 2.0645122161153e+25
0	3596050368 11711188 164177095 165375454 2736288.2 2756260.815 299592 7189795017.9444 7189869018.0815 2.1540161539563e+15 1.5487014311283e+25
1	3607761556 15294814 164177088 165375460 2736288.05 2756260.95 399459 7188966502.1643 7189046515.9409 2.8717133511304e+15 2.0644765973844e+25
0	3623056370 11711486 165375463 166573834 2756261 2776233.815 299594 7189721015.5495 7189795017.2034 2.1540083632147e+15 1.5486798897307e+25
1	3634767856 15294727 165375464 166573832 2756261 2776233.8 399457 7188886487.7162 7188966501.964 2.8716670108789e+15 2.0644203059291e+25
0	3650062583 11710340 166573834 167772202 2776233.815 2796206.615 299593 7189647013.176 7189721015.5495 2.1539790028584e+15 1.5486428403854e+25
1	3661772923 15294759 166573836 167772206 2776233.85 2796206.7 399458 7188806472.1561 7188886487.5158 2.8716422371713e+15 2.0643795188459e+25
0	3677067682 11710385 167772211 168970579 2796206.8 2816179.6 299593 7189573009.2924 7189647012.4351 2.1539568320767e+15 1.5486109603665e+25
1	3688778067 15294774 167772208 168970580 2796206.75 2816179.6 399458 7188726455.7085 7188806471.9558 2.8716102741403e+15 2.0643335636371e+25
0	3704072841 11710761 168970582 170168950 2816179.615 2836152.415 299594 7189499005.3842 7189573009.2923 2.1539418505658e+15 1.5485842492372e+25
1	3715783602 15294719 168970584 170168952 2816179.65 2836152.45 399457 7188646438.5892 7188726455.5082 2.8715711221081e+15 2.0642824407659e+25
0	3731078321 11710424 170168959 171367327 2836152.6 2856125.4 299593 7189424999.9614 7189499004.6431 2.1539124897461e+15 1.54854720021e+25
1	3742788745 15294828 170168954 171367324 2836152.5 2856125.35 399458 7188566420.3557 7188646438.3889 2.8715463470931e+15 2.0642416533375e+25
0	3758083573 11710727 171367330 172565698 2856125.415 2876098.215 299594 7189350994.5161 7189424999.9613 2.1538975076282e+15 1.5485204888643e+25
1	3769794300 15294725 171367328 172565696 2856125.4 2876098.2 399457 7188486401.4371 7188566420.1554 2.8715071945084e+15 2.064190530695e+25
0	3785089025 11710472 172565707 173764066 2876098.4 2896071.015 299592 7189276988.3627 7189350993.7751 2.153860957233e+15 1.5484782714939e+25
1	3796799497 15294799 172565700 173764072 2876098.25 2896071.15 399459 7188406381.2458 7188486401.2368 2.871489607028e+15 2.064154910355e+25
0	3812094296 11711258 173764075 174962446 2896071.2 2916044.015 299594 7189202980.6935 7189276987.6218 2.153853163869e+15 1.5484567286227e+25
1	3823805554 15294762 173764076 174962444 2896071.2 2916044 399457 7188326360.5388 7188406381.0455 2.8714432654063e+15 2.0640986205105e+25
0	3839100316 11710569 174962446 176160814 2916044.015 2936016.815 299593 7189128972.9945 7189202980.6936 2.1538238024451e+15 1.5484196800393e+25
1	3850810885 15294767 174962448 176160818 2916044.05 2936016.9 399458 7188246338.7484 7188326360.3385 2.8714184886469e+15 2.0640578326203e+25
0	3866105652 11711230 176160823 177359191 2936017 2955989.8 299593 7189054963.7978 7189128972.2534 2.15380163007e+15 1.5483878000264e+25
1	3877816882 15294681 176160820 177359192 2936016.95 2955989.8 399458 7188166316.0859 7188246338.5481 2.8713865231263e+15 2.064011877413e+25
0	3893111563 11710880 177359194 178557562 2955989.815 2975962.615 299594 7188980954.5698 7189054963.7979 2.1537866464466e+15 1.5483610881569e+25
1	3904822443 15294749 177359196 178557564 2955989.85 2975962.65 399457 7188086292.7047 7188166315.8855 2.8713473691635e+15 2.0639607553472e+25
0	3920117192 11710803 178557571 179755939 2975962.8 2995935.6 299593 7188906943.8299 7188980953.8287 2.1537572845575e+15 1.5483240398893e+25
1	3931827995 15294788 178557566 179755936 2975962.7 2995935.55 399458 7188006268.2426 7188086292.5044 2.8713225910965e+15 2.0639199671119e+25
0	3947122783 11710782 179755942 180954310 2995935.615 3015908.415 299594 7188832933.0576 7188906943.8298 2.1537423003208e+15 1.5482973277944e+25
1	3958833565 15294758 179755940 180954308 2995935.6 3015908.4 399457 7187926243.1085 7188006268.0422 2.871283436582e+15 2.0638688452764e+25
0	3974128323 11710461 180954319 182152678 3015908.6 3035881.215 299592 7188758921.5249 7188832932.3166 2.1537057493574e+15 1.5482551119042e+25
1	3985838784 15294836 180954312 182152684 3015908.45 3035881.35 399459 7187846216.6522 7187926242.9082 2.8712658454903e+15 2.0638332233256e+25
0	4001133620 11710962 182152687 183351058 3035881.4 3055854.215 299594 7188684908.5037 7188758920.7838 2.1536979533519e+15 1.5482335675324e+25
1	4012844582 15294717 182152688 183351056 3035881.4 3055854.2 399457 7187766189.7185 7187846216.4519 2.8712195024969e+15 2.0637769350903e+25
0	4028139299 11710633 183351058 184549426 3055854.215 3075827.015 299593 7188610895.4681 7188684908.5038 2.1536685908457e+15 1.5481965196904e+25
1	4039849932 15294771 183351060 184549430 3055854.25 3075827.1 399458 7187686161.7121 7187766189.5181 2.8711947226872e+15 2.0637361463964e+25
0	4055144703 11710725 184549435 185747803 3075827.2 3095800 299593 7188536880.9583 7188610894.727 2.1536464168747e+15 1.5481646396806e+25
1	4066855428 15294722 184549432 185747804 3075827.15 3095800 399458 7187606132.7812 7187686161.5117 2.8711627546751e+15 2.0636901911888e+25
0	4082150150 11710753 185747806 186946174 3095800.015 3115772.815 299594 7188462866.3775 7188536880.9582 2.1536314311334e+15 1.5481379270635e+25
1	4093860903 15294751 185747808 186946176 3095800.05 3115772.85 399457 7187526103.1753 7187606132.5809 2.8711235987803e+15 2.063639069927e+25
0	4109155654 11710909 186946183 188144551 3115773 3135745.8 299593 7188388850.2895 7188462865.6364 2.1536020681562e+15 1.5481008795291e+25
1	4120866563 15294826 186946178 188144548 3115772.9 3135745.75 399458 7187446072.4966 7187526102.9749 2.8710988176628e+15 2.0635982808881e+25
0	4136161389 11710625 188144554 189342922 3135745.815 3155718.615 299594 7188314834.1793 7188388850.2895 2.1535870818018e+15 1.5480741666871e+25
1	4147872014 15294720 188144552 189342920 3135745.8 3155718.6 399457 7187366041.0909 7187446072.2963 2.8710596612167e+15 2.0635471598573e+25
0	4163166734 11711021 189342931 190541290 3155718.8 3175691.415 299592 7188240817.3041 7188314833.4382 2.1535505302763e+15 1.5480319522866e+25
1	4174877755 15294810 189342924 190541296 3155718.65 3175691.55 399459 7187286008.4119 7187366040.8906 2.8710420665122e+15 2.0635115362949e+25
0	4190172565 11710934 190541299 191739670 3175691.6 3195664.415 299594 7188166798.9303 7188240816.5631 2.1535427316377e+15 1.5480104064269e+25
1	4201883499 15294753 190541300 191739668 3175691.6 3195664.4 399457 7187205975.2584 7187286008.2115 2.8709957221487e+15 2.0634552496718e+25
0	4217178252 11710790 191739670 192938038 3195664.415 3215637.215 299593 7188092780.5326 7188166798.9303 2.1535133680398e+15 1.5479733593132e+25
1	4228889042 15294763 191739672 192938042 3195664.45 3215637.3 399458 7187125940.9795 7187205975.058 2.8709709392866e+15 2.0634144601719e+25
0	4244183805 11710711 192938047 194136415 3215637.4 3235610.2 299593 7188018760.6571 7188092779.7915 2.1534911924634e+15 1.5479414792931e+25
1	4255894516 15294764 192938044 194136416 3215637.35 3235610.2 399458 7187045905.8281 7187125940.7792 2.8709389687821e+15 2.0633685049634e+25
0	4271189280 11710753 194136418 195334786 3235610.215 3255583.015 299594 7187944740.7408 7188018760.657 2.1534762045984e+15 1.5479147659208e+25
1	4282900033 15294739 194136420 195334788 3235610.25 3255583.05 399457 7186965869.9989 7187045905.6278 2.8708998109568e+15 2.0633173845087e+25
0	4298194772 11710605 195334795 196533163 3255583.2 3275556 299593 7187870719.3196 7187944739.9997 2.1534468405446e+15 1.5478777191365e+25
1	4309905377 15294782 195334790 196533160 3255583.1 3275555.95 399458 7186885833.0472 7186965869.7986 2.8708750267864e+15 2.0632765946635e+25
0	4325200159 11710923 196533166 197731534 3275556.015 3295528.815 299594 7187796697.888 7187870719.3195 2.1534318520752e+15 1.5478510055518e+25
1	4336911082 15294696 196533164 197731532 3275556 3295528.8 399457 7186805795.4233 7186885832.8469 2.870835868408e+15 2.0632254744373e+25
0	4352205778 11710426 197731543 198929902 3295529 3315501.615 299592 7187722675.7276 7187796697.1469 2.1533953000006e+15 1.5478087926599e+25
1	4363916204 15294797 197731536 198929908 3295528.85 3315501.75 399459 7186725756.5173 7186805795.223 2.870818270092e+15 2.063189849266e+25
0	4379211001 11710625 198929911 200128282 3315501.8 3335474.615 299594 7187648652.029 7187722674.9865 2.1533874987275e+15 1.547787245311e+25
1	4390921626 15294754 198929912 200128280 3315501.8 3335474.6 399457 7186645717.0929 7186725756.3169 2.8707719243559e+15 2.0631335642523e+25
0	4406216380 11710764 200128282 201326650 3335474.615 3355447.415 299593 7187574628.3143 7187648652.0291 2.1533581340625e+15 1.5477501989613e+25
1	4417927144 15294692 200128284 201326654 3335474.65 3355447.5 399458 7186565676.5955 7186645716.8925 2.870747138441e+15 2.0630927739467e+25
0	4433221836 11710815 201326659 202525027 3355447.6 3375420.4 299593 7187500603.0602 7187574627.5732 2.1533359568775e+15 1.5477183189268e+25
1	4444932651 15294795 201326656 202525028 3355447.55 3375420.4 399458 7186485635.2134 7186565676.3952 2.8707151654452e+15 2.0630468187399e+25
0	4460227446 11710598 202525030 203723398 3375420.415 3395393.215 299594 7187426577.8113 7187500603.0603 2.1533209668889e+15 1.5476916048e+25
1	4471938044 15294760 202525032 203723400 3375420.45 3395393.25 399457 7186405593.1157 7186485635.013 2.8706760056866e+15 2.062995699089e+25
0	4487232804 11710866 203723407 204921775 3395393.4 3415366.2 299593 7187352551.0199 7187426577.0701 2.1532916017546e+15 1.5476545587607e+25
1	4498943670 15294787 203723402 204921772 3395393.3 3415366.15 399458 7186325549.945 7186405592.9154 2.8706512184633e+15 2.0629549084384e+25
0	4514238457 11710405 204921778 206120146 3415366.215 3435339.015 299594 7187278524.2374 7187352551.02 2.1532766111648e+15 1.5476278444263e+25
1	4525948862 15294722 204921776 206120144 3415366.2 3435339 399457 7186245506.0865 7186325549.7447 2.8706120581536e+15 2.0629037890191e+25
0	4541243584 11710460 206120155 207318514 3435339.2 3455311.815 299592 7187204496.7103 7187278523.4962 2.1532400585109e+15 1.5475856329999e+25
1	4552954044 15294805 206120148 207318520 3435339.05 3455311.95 399459 7186165460.9146 7186245505.8861 2.8705944562232e+15 2.0628681622355e+25
0	4568248849 11710849 207318523 208516894 3455312 3475284.815 299594 7187130467.6651 7187204495.969 2.1532322546074e+15 1.5475640841682e+25
1	4579959698 15294732 207318524 208516892 3455312 3475284.8 399457 7186085415.2707 7186165460.7142 2.8705481091149e+15 2.0628118788326e+25
0	4595254430 11710460 208516894 209715262 3475284.815 3495257.615 299593 7187056438.6842 7187130467.6652 2.1532028888628e+15 1.5475270385651e+25
1	4606964890 15294788 208516896 209715266 3475284.85 3495257.7 399458 7186005368.5346 7186085415.0703 2.8705233201478e+15 2.0627710877232e+25
0	4622259678 11710942 209715271 210913639 3495257.8 3515230.6 299593 7186982408.1282 7187056437.9429 2.1531807100981e+15 1.5474951585583e+25
1	4633970620 15294833 209715268 210913640 3495257.75 3515230.6 399458 7185925320.8894 7186005368.3342 2.8704913446578e+15 2.0627251325147e+25
0	4649265453 11710563 210913642 212112010 3515230.615 3535203.415 299594 7186908377.5322 7186982408.1282 2.1531657180048e+15 1.5474684437044e+25
1	4660976016 15294720 210913644 212112012 3515230.65 3535203.45 399457 7185845272.5717 7185925320.689 2.8704521829667e+15 2.0626740136694e+25
0	4676270736 11710800 212112019 213310387 3535203.6 3555176.4 299593 7186834345.4493 7186908376.791 2.1531363517873e+15 1.5474313984068e+25
1	4687981536 15294775 212112014 213310384 3535203.5 3555176.35 399458 7185765223.1581 7185845272.3713 2.8704273926909e+15 2.0626332222149e+25
0	4703276311 11710490 213310390 214508758 3555176.415 3575149.215 299594 7186760313.3443 7186834345.4492 2.1531213590846e+15 1.5474046833338e+25
1	4714986801 15294743 213310388 214508756 3555176.4 3575149.2 399457 7185685173.0393 7185765222.9577 2.870388230447e+15 2.0625821035991e+25
0	4730281544 11710860 214508767 215707126 3575149.4 3595122.015 299592 7186686280.4814 7186760312.6031 2.1530848058728e+15 1.5473624734043e+25
1	4741992404 15294764 214508760 215707132 3575149.25 3595122.15 399459 7185605121.6469 7185685172.8389 2.870370624903e+15 2.0625464752055e+25
0	4757287168 11710466 215707135 216905506 3595122.2 3615095.015 299594 7186612246.1011 7186686279.7401 2.1530769993308e+15 1.5473409230786e+25
1	4768997634 15294729 215707136 216905504 3595122.2 3615095 399457 7185525069.7559 7185605121.4465 2.8703242764229e+15 2.0624901934145e+25
0	4784292363 11711073 216905506 218103874 3615095.015 3635067.815 299593 7186538211.7208 7186612246.1012 2.1530476325e+15 1.5473038782131e+25
1	4796003436 15294772 216905508 218103878 3615095.05 3635067.9 399458 7185445016.7625 7185525069.5555 2.8702994844005e+15 2.0624494014978e+25
0	4811298208 11710340 218103883 219302251 3635068 3655040.8 299593 7186464175.8078 7186538210.9796 2.1530254521246e+15 1.54727199819e+25
1	4823008548 15294765 218103880 219302252 3635067.95 3655040.8 399458 7185364962.8962 7185445016.5621 2.8702675064175e+15 2.06240344629e+25
0	4838303313 11710502 219302254 220500622 3655040.815 3675013.615 299594 7186390139.8699 7186464175.8077 2.1530104579104e+15 1.5472452825866e+25
1	4850013815 15294733 219302256 220500624 3655040.85 3675013.65 399457 7185284908.327 7185364962.6958 2.8702283427939e+15 2.0623523282512e+25
0	4865308548 11710612 220500631 221698999 3675013.8 3694986.6 299593 7186316102.4138 7186390139.1287 2.1529810906064e+15 1.5472082380261e+25
1	4877019160 15294787 220500626 221698996 3675013.7 3694986.55 399458 7185204852.6592 7185284908.1266 2.8702035494625e+15 2.0623115359894e+25
0	4892313947 11710977 221699002 222897370 3694986.615 3714959.415 299594 7186242064.9676 7186316102.4138 2.1529660957814e+15 1.5471815222019e+25
1	4904024924 15294683 221699000 222897368 3694986.6 3714959.4 399457 7185124796.3188 7185204852.4588 2.8701643852859e+15 2.0622604181799e+25
0	4919319607 11710814 222897379 224095738 3714959.6 3734932.215 299592 7186168026.7279 7186242064.2263 2.1529295420047e+15 1.5471393137592e+25
1	4931030421 15294838 222897372 224095744 3714959.45 3734932.35 399459 7185044738.6704 7185124796.1184 2.8701467761278e+15 2.0622247881766e+25
0	4946325259 11711025 224095747 225294118 3734932.4 3754905.215 299594 7186093987.031 7186168025.9866 2.1529217328193e+15 1.5471177619334e+25
1	4958036284 15294734 224095748 225294116 3734932.4 3754905.2 399457 7184964680.5284 7185044738.47 2.8701004262731e+15 2.0621685079942e+25
0	4973331018 11710714 225294118 226492486 3754905.215 3774878.015 299593 7186019947.2634 7186093987.0311 2.1528923649049e+15 1.5470807178095e+25
1	4985041732 15294889 225294120 226492490 3754905.25 3774878.1 399458 7184884621.3129 7184964680.328 2.8700756311971e+15 2.0621277152734e+25
0	5000336621 11711201 226492495 227690863 3774878.2 3794851 299593 7185945906.0364 7186019946.522 2.1528701829295e+15 1.5470488377859e+25
1	5012047822 15294791 226492492 227690864 3774878.15 3794851 399458 7184804561.186 7184884621.1124 2.8700436507204e+15 2.0620817600664e+25
0	5027342613 11710892 227690866 228889234 3794851.015 3814823.815 299594 7185871864.758 7185945906.0365 2.1528551865937e+15 1.5470221214324e+25
1	5039053505 15294747 227690868 228889236 3794851.05 3814823.85 399457 7184724500.3691 7184804560.9856 2.8700044851616e+15 2.0620306428309e+25
0	5054348252 11710826 228889243 230087611 3814824 3834796.8 299593 7185797821.9731 7185871864.0167 2.1528258182105e+15 1.5469850776202e+25
1	5066059078 15294762 228889238 230087608 3814823.9 3834796.75 399458 7184644438.4787 7184724500.1687 2.8699796887765e+15 2.0619898497651e+25
0	5081353840 11710285 230087614 231285982 3834796.815 3854769.615 299594 7185723779.1957 7185797821.9732 2.1528108212749e+15 1.5469583610617e+25
1	5093064125 15294744 230087612 231285980 3834796.8 3854769.6 399457 7184564375.873 7184644438.2782 2.8699405226662e+15 2.0619387327614e+25
0	5108358869 11710250 231285991 232484350 3854769.8 3874742.415 299592 7185649735.6507 7185723778.4544 2.1527742669381e+15 1.5469161541136e+25
1	5120069119 15294808 231285984 232484356 3854769.65 3874742.55 399459 7184484311.9802 7184564375.6726 2.8699229098915e+15 2.0619031011457e+25
0	5135363927 11710673 232484359 233682730 3874742.6 3894715.415 299594 7185575690.6008 7185649734.9094 2.152766455122e+15 1.5468946008062e+25
1	5147074600 15294765 232484360 233682728 3874742.6 3894715.4 399457 7184404247.615 7184484311.7798 2.8698765586641e+15 2.0618468225754e+25
0	5162369365 11710997 233682730 234881098 3894715.415 3914688.215 299593 7185501645.5279 7185575690.6009 2.1527370861261e+15 1.5468575574275e+25
1	5174080362 15294783 233682732 234881102 3894715.45 3914688.3 399458 7184324182.1294 7184404247.4146 2.8698517605332e+15 2.0618060290495e+25
0	5189375145 11710516 234881107 236079475 3914688.4 3934661.2 299593 7185427598.9389 7185501644.7866 2.1527149025525e+15 1.5468256774066e+25
1	5201085661 15294782 234881104 236079476 3914688.35 3934661.2 399458 7184244115.7617 7184324181.929 2.8698197775605e+15 2.0617600738408e+25
0	5216380443 11710291 236079478 237277846 3934661.215 3954634.015 299594 7185353552.3173 7185427598.939 2.1526999040963e+15 1.5467989603053e+25
1	5228090734 15294875 236079480 237277848 3934661.25 3954634.05 399457 7184164048.7212 7184244115.5613 2.8697806100685e+15 2.0617089574123e+25
0	5243385609 11711228 237277855 238476223 3954634.2 3974607 299593 7185279504.2096 7185353551.5759 2.1526705346367e+15 1.5467619172457e+25
1	5255096837 15294782 237277850 238476220 3954634.1 3974606.95 399458 7184083980.5557 7184164048.5207 2.8697558106279e+15 2.061668163541e+25
0	5270391619 11711076 238476226 239674594 3974607.015 3994579.815 299594 7185205456.0793 7185279504.2097 2.1526555355745e+15 1.5467351999307e+25
1	5282102695 15294732 238476224 239674592 3974607 3994579.8 399457 7184003911.7129 7184083980.3553 2.869716642582e+15 2.0616170473412e+25
0	5297397427 11710989 239674603 240872962 3994580 4014552.615 299592 7185131407.2027 7185205455.3378 2.1526189806795e+15 1.54669299448e+25
1	5309108416 15294818 239674596 240872968 3994579.85 4014552.75 399459 7183923841.5958 7184003911.5125 2.8696990261926e+15 2.0615814141165e+25
0	5324403234 11711024 240872971 242071342 4014552.8 4034525.615 299594 7185057356.7894 7185131406.4613 2.1526111662244e+15 1.5466714396801e+25
1	5336114258 15294730 240872972 242071340 4014552.8 4034525.6 399457 7183843770.9506 7183923841.3954 2.8696526735906e+15 2.0615251371564e+25
0	5351408988 11710921 242071342 243269710 4034525.615 4054498.415 299593 7184983306.3619 7185057356.7894 2.1525817961431e+15 1.5466343970412e+25
1	5363119909 15294776 242071344 243269714 4034525.65 4054498.5 399458 7183763699.2316 7183843770.7502 2.8696278724031e+15 2.061484342824e+25
0	5378414685 11711251 243269719 244468087 4054498.6 4074471.4 299593 7184909254.4781 7184983305.6205 2.1525596109721e+15 1.5466025170245e+25
1	5390125936 15294756 243269716 244468088 4054498.55 4074471.4 399458 7183683626.6346 7183763699.0311 2.8695958869364e+15 2.0614383876171e+25
0	5405420692 11710762 244468090 245666458 4074471.415 4094444.215 299594 7184835202.5259 7184909254.4782 2.1525446104041e+15 1.5465757991886e+25
1	5417131454 15294767 244468092 245666460 4074471.45 4094444.25 399457 7183603553.3134 7183683626.4341 2.8695567175088e+15 2.061387271993e+25
0	5432426221 11710258 245666467 246864835 4094444.4 4114417.2 299593 7184761149.0936 7184835201.7843 2.1525152398694e+15 1.5465387568838e+25
1	5444136479 15294900 245666462 246864832 4094444.3 4114417.15 399458 7183523478.9183 7183603553.1129 2.8695319150116e+15 2.0613464773157e+25
0	5459431379 11710470 246864838 248063206 4114417.215 4134390.015 299594 7184687095.6717 7184761149.0937 2.1525002387027e+15 1.5465120388447e+25
1	5471141849 15294729 246864836 248063204 4114417.2 4134390 399457 7183443403.841 7183523478.7179 2.869492745032e+15 2.0612953619229e+25
0	5486436578 11710974 248063215 249261574 4134390.2 4154362.815 299592 7184613041.4297 7184687094.9303 2.1524636832444e+15 1.5464698348845e+25
1	5498147552 15294819 248063208 249261580 4134390.05 4154362.95 399459 7183363327.4427 7183443403.6405 2.869475125025e+15 2.0612597270865e+25
0	5513442371 11710525 249261583 250459954 4154363 4174335.815 299594 7184538985.6809 7184613040.6882 2.1524558661515e+15 1.546448278594e+25
1	5525152896 15294725 249261584 250459952 4154363 4174335.8 399457 7183283250.5719 7183363327.2423 2.8694287710479e+15 2.0612034517365e+25
0	5540447621 11710304 250459954 251658322 4174335.815 4194308.615 299593 7184464929.9195 7184538985.681 2.1524264949853e+15 1.5464112366963e+25
1	5552157925 15294770 250459956 251658326 4174335.85 4194308.7 399458 7183203172.6129 7183283250.3714 2.8694039668053e+15 2.0611626566005e+25
0	5567452695 11710541 251658331 252856699 4194308.8 4214281.6 299593 7184390872.6452 7184464929.178 2.1524043082123e+15 1.5463793566779e+25
1	5579163236 15294798 251658328 252856700 4194308.75 4214281.6 399458 7183123093.7388 7183203172.4125 2.8693719788416e+15 2.0611167013921e+25
0	5594458034 11710570 252856702 254055070 4214281.615 4234254.415 299594 7184316815.3381 7184390872.6453 2.1523893055197e+15 1.5463526380891e+25
1	5606168604 15294746 252856704 254055072 4214281.65 4234254.45 399457 7183043014.1915 7183123093.5383 2.8693328074785e+15 2.0610655865733e+25
0	5621463350 11710444 254055079 255253447 4234254.6 4254227.4 299593 7184242756.5557 7184316814.5966 2.1523599338912e+15 1.5463155965131e+25
1	5633173794 15294767 254055074 255253444 4234254.5 4254227.35 399458 7182962933.5511 7183043013.991 2.8693080019259e+15 2.0610247910922e+25
0	5648468561 11710776 255253450 256451818 4254227.415 4274200.215 299594 7184168697.7561 7184242756.5556 2.1523449306025e+15 1.5462888777249e+25
1	5660179337 15294738 255253448 256451816 4254227.4 4274200.2 399457 7182882852.2007 7182962933.3506 2.8692688300094e+15 2.060973676503e+25
0	5675474075 11710751 256451827 257650186 4274200.4 4294173.015 299592 7184094638.1655 7184168697.0146 2.1523083745791e+15 1.5462466752532e+25
1	5687184826 15294791 256451820 257650192 4274200.25 4294173.15 399459 7182802769.5758 7182882852.0003 2.8692512063852e+15 2.0609380400562e+25
0	5702479617 11710912 257650195 258848566 4294173.2 4314146.015 299594 7184020577.102 7184094637.424 2.1523005548501e+15 1.5462251174753e+25
1	5714190529 15294715 257650196 258848564 4294173.2 4314146 399457 7182722686.4541 7182802769.3754 2.869204851034e+15 2.0608817663183e+25
0	5729485244 11710861 258848566 260046934 4314146.015 4334118.815 299593 7183946515.9794 7184020577.102 2.1522711826017e+15 1.5461880763232e+25
1	5741196105 15294780 258848568 260046938 4314146.05 4334118.9 399458 7182642602.2264 7182722686.2536 2.869180043733e+15 2.0608409703752e+25
0	5756490885 11710431 260046943 261245311 4334119 4354091.8 299593 7183872453.3942 7183946515.2379 2.1522489942278e+15 1.5461561963049e+25
1	5768201316 15294762 260046940 261245312 4334118.95 4354091.8 399458 7182562517.1251 7182642602.0259 2.8691480532733e+15 2.0607950151673e+25
0	5783496078 11710690 261245314 262443682 4354091.815 4374064.615 299594 7183798390.7455 7183872453.3941 2.1522339894194e+15 1.5461294769765e+25
1	5795206768 15294749 261245316 262443684 4354091.85 4374064.65 399457 7182482431.3211 7182562516.9246 2.8691088799751e+15 2.0607439011551e+25
0	5810501517 11710734 262443691 263642059 4374064.8 4394037.6 299593 7183724326.5961 7183798390.004 2.1522046167096e+15 1.5460924361474e+25
1	5822212251 15294748 262443686 263642056 4374064.7 4394037.55 399458 7182402344.4164 7182482431.1207 2.8690840713638e+15 2.0607031048667e+25
0	5837506999 11710938 263642062 264840430 4394037.615 4414010.415 299594 7183650262.4155 7183724326.5962 2.1521896112906e+15 1.5460657165993e+25
1	5849217937 15294748 263642060 264840428 4394037.6 4414010.4 399457 7182322256.8384 7182402344.2159 2.8690448975117e+15 2.0606519910837e+25
0	5864512685 11710343 264840439 266038798 4414010.6 4433983.215 299592 7183576197.4782 7183650261.674 2.1521530546918e+15 1.5460235156013e+25
1	5876223028 15294817 264840432 266038804 4414010.45 4433983.35 399459 7182242167.951 7182322256.6379 2.8690272702702e+15 2.0606163530274e+25
0	5891517845 11710662 266038807 267237178 4433983.4 4453956.215 299594 7183502131.048 7183576196.7366 2.152145232321e+15 1.5460019563286e+25
1	5903228507 15294735 266038808 267237176 4433983.4 4453956.2 399457 7182162078.5695 7182242167.7505 2.8689809135419e+15 2.0605600808981e+25
0	5918523242 11710928 267237178 268435546 4453956.215 4473929.015 299593 7183428064.5965 7183502131.048 2.1521158589972e+15 1.5459649159321e+25
1	5930234170 15294774 267237180 268435550 4453956.25 4473929.1 399458 7182081988.1136 7182162078.369 2.8689561031842e+15 2.0605192841508e+25
0	5945528944 11711089 268435555 269633923 4473929.2 4493902 299593 7183353996.6443 7183428063.8549 2.152093669018e+15 1.5459330359081e+25
1	5957240033 15294668 268435552 269633924 4473929.15 4493902 399458 7182001896.7439 7182081987.9131 2.8689241102278e+15 2.0604733289437e+25
0	5972534701 11710907 269633926 270832294 4493902.015 4513874.815 299594 7183279928.6955 7183353996.6444 2.1520786620944e+15 1.5459063158417e+25
1	5984245608 15294724 269633928 270832296 4493902.05 4513874.85 399457 7181921804.6848 7182001896.5434 2.8688849349917e+15 2.0604222157348e+25
0	5999540332 11710947 270832303 272030671 4513875 4533847.8 299593 7183205859.2052 7183279927.9539 2.1520492883106e+15 1.5458692757706e+25
1	6011251279 15294774 270832298 272030668 4513874.9 4533847.75 399458 7181841711.5514 7181921804.4843 2.8688601233235e+15 2.0603814186425e+25
0	6026546053 11710726 272030674 273229042 4533847.815 4553820.615 299594 7183131789.6896 7183205859.2053 2.1520342807737e+15 1.5458425554805e+25
1	6038256779 15294737 272030672 273229040 4533847.8 4553820.6 399457 7181761617.699 7181841711.3509 2.868820947535e+15 2.0603303056652e+25
0	6053551516 11710871 273229051 274427410 4553820.8 4573793.415 299592 7183057719.4044 7183131788.9478 2.1519977236113e+15 1.5458003559739e+25
1	6065262387 15294809 273229044 274427416 4553820.65 4573793.55 399459 7181681522.5612 7181761617.4985 2.8688033166736e+15 2.0602946659964e+25
0	6080557196 11710618 274427419 275625790 4573793.6 4593766.415 299594 7182983647.6098 7183057718.6628 2.1519898985987e+15 1.5457787952068e+25
1	6092267814 15294727 274427420 275625788 4573793.6 4593766.4 399457 7181601426.9504 7181681522.3606 2.8687569585701e+15 2.0602383954793e+25
0	6107562541 11710940 275625790 276824158 4593766.415 4613739.215 299593 7182909575.8212 7182983647.6098 2.151960524184e+15 1.5457417555441e+25
1	6119273481 15294767 275625792 276824162 4593766.45 4613739.3 399458 7181521330.2139 7181601426.7499 2.8687321451542e+15 2.0601975979267e+25
0	6134568248 11710800 276824167 278022535 4613739.4 4633712.2 299593 7182835502.5427 7182909575.0796 2.1519383326146e+15 1.5457098755368e+25
1	6146279048 15294763 276824164 278022536 4613739.35 4633712.2 399458 7181441232.5986 7181521330.0134 2.8687001496991e+15 2.0601516427181e+25
0	6161573811 11710980 278022538 279220906 4633712.215 4653685.015 299594 7182761429.2549 7182835502.5428 2.1519233235729e+15 1.5456831547288e+25
1	6173284791 15294732 278022540 279220908 4633712.25 4653685.05 399457 7181361134.309 7181441232.3981 2.8686609725271e+15 2.0601005303163e+25
0	6188579523 11710821 279220915 280419283 4653685.2 4673658 299593 7182687354.3922 7182761428.5133 2.1518939486984e+15 1.5456461153918e+25
1	6200290344 15294769 279220910 280419280 4653685.1 4673657.95 399458 7181281034.8895 7181361134.1085 2.8686361578001e+15 2.0600597324182e+25
0	6215585113 11710701 280419286 281617654 4673658.015 4693630.815 299594 7182613279.5361 7182687354.3923 2.1518789390396e+15 1.5456193943548e+25
1	6227295814 15294727 280419284 281617652 4673658 4693630.8 399457 7181200934.7966 7181281034.689 2.8685969800735e+15 2.060008620245e+25
0	6242590541 11710719 281617663 282816022 4693631 4713603.615 299592 7182539203.8955 7182613278.7944 2.1518423813156e+15 1.5455771963427e+25
1	6254301260 15294821 281617656 282816028 4693630.85 4713603.75 399459 7181120833.4217 7181200934.596 2.868579345594e+15 2.0599729789675e+25
0	6269596081 11710774 282816031 284014402 4713603.8 4733576.615 299594 7182465126.8186 7182539203.1539 2.1518345536716e+15 1.5455556340968e+25
1	6281306855 15294752 282816032 284014400 4713603.8 4733576.6 399457 7181040731.5244 7181120833.2212 2.8685329861132e+15 2.0599167100601e+25
0	6296601607 11710458 284014402 285212770 4733576.615 4753549.415 299593 7182391049.6972 7182465126.8187 2.1518051781859e+15 1.5455185951971e+25
1	6308312065 15294674 284014404 285212774 4733576.65 4753549.5 399458 7180960628.5525 7181040731.3239 2.8685081696378e+15 2.0598759117014e+25
0	6323606739 11710454 285212779 286411147 4753549.6 4773522.4 299593 7182316971.0407 7182391048.9556 2.1517829850138e+15 1.5454867151889e+25
1	6335317193 15294827 285212776 286411148 4753549.55 4773522.4 399458 7180880524.6938 7180960628.352 2.8684761716857e+15 2.0598299564945e+25
0	6350612020 11710660 286411150 287609518 4773522.415 4793495.215 299594 7182242892.3442 7182316971.0407 2.151767973838e+15 1.5454599936166e+25
1	6362322680 15294775 286411152 287609520 4773522.45 4793495.25 399457 7180800420.1179 7180880524.4932 2.8684369925752e+15 2.0597788448967e+25
0	6377617455 11710928 287609527 288807895 4793495.4 4813468.2 299593 7182168812.1658 7182242891.6024 2.1517385978759e+15 1.545422955019e+25
1	6389328383 15294764 287609522 288807892 4793495.3 4813468.15 399458 7180720314.4673 7180800419.9173 2.8684121747888e+15 2.059738046193e+25
0	6404623147 11710912 288807898 290006266 4813468.215 4833441.015 299594 7182094731.96 7182168812.1658 2.1517235861006e+15 1.5453962332432e+25
1	6416334059 15294741 288807896 290006264 4813468.2 4833441 399457 7180640208.1243 7180720314.2667 2.8683729951256e+15 2.0596869348269e+25
0	6431628800 11710944 290006275 291204634 4833441.2 4853413.815 299592 7182020650.9941 7182094731.2183 2.151687027815e+15 1.545354036726e+25
1	6443339744 15294528 290006268 291204640 4833441.05 4853413.95 399459 7180560100.4685 7180640207.9237 2.8683553570249e+15 2.0596512919371e+25
0	6458634272 11710872 291204643 292403014 4853414 4873386.815 299594 7181946568.5371 7182020650.2524 2.1516791975282e+15 1.5453324729856e+25
1	6470345144 15294729 291204644 292403012 4853414 4873386.8 399457 7180479992.3395 7180560100.2679 2.868308996167e+15 2.0595950246404e+25
0	6485639873 11710675 292403014 293601382 4873386.815 4893359.615 299593 7181872486.0314 7181946568.5372 2.1516498209503e+15 1.5452954348188e+25
1	6497350548 15294766 292403016 293601386 4873386.85 4893359.7 399458 7180399883.1109 7180479992.139 2.8682841766332e+15 2.0595542254779e+25
0	6512645314 11710584 293601391 294799759 4893359.8 4913332.6 299593 7181798402.0343 7181872485.2895 2.1516276261695e+15 1.5452635548016e+25
1	6524355898 15294782 293601388 294799760 4893359.75 4913332.6 399458 7180319772.9766 7180399882.9103 2.8682521761809e+15 2.0595082702692e+25
0	6539650680 11710949 294799762 295998130 4913332.615 4933305.415 299594 7181724318.0122 7181798402.0344 2.1516126128781e+15 1.5452368324924e+25
1	6551361629 15294711 294799764 295998132 4913332.65 4933305.45 399457 7180239662.1685 7180319772.776 2.8682129951326e+15 2.0594571594772e+25
0	6566656340 11710677 295998139 297196507 4933305.6 4953278.4 299593 7181650232.4933 7181724317.2704 2.1515832358383e+15 1.5451997946485e+25
1	6578367017 15294776 295998134 297196504 4933305.5 4953278.35 399458 7180159550.2544 7180239661.9679 2.8681881742874e+15 2.0594163599696e+25
0	6593661793 11710663 297196510 298394878 4953278.415 4973251.215 299594 7181576146.9335 7181650232.4933 2.1515682219412e+15 1.5451730721271e+25
1	6605372456 15294696 297196508 298394876 4953278.4 4973251.2 399457 7180079437.6413 7180159550.0538 2.8681489926845e+15 2.0593652494067e+25
0	6620667152 11710649 298394887 299593246 4973251.4 4993224.015 299592 7181502060.5977 7181576146.1918 2.1515316630842e+15 1.5451308770911e+25
1	6632377801 15294819 298394880 299593252 4973251.25 4993224.15 399459 7179999323.7528 7180079437.4408 2.8681313509637e+15 2.0593296049072e+25
0	6647672620 11710330 299593255 300791626 4993224.2 5013197.015 299594 7181427972.772 7181502059.856 2.1515238301524e+15 1.5451093118536e+25
1	6659382950 15294754 299593256 300791624 4993224.2 5013197 399457 7179919209.3534 7179999323.5523 2.8680849887287e+15 2.0592733392221e+25
0	6674677704 11710554 300791626 301989994 5013197.015 5033169.815 299593 7181353884.8992 7181427972.772 2.1514944524889e+15 1.5450722744295e+25
1	6686388258 15294740 300791628 301989998 5013197.05 5033169.9 399458 7179839093.8604 7179919209.1529 2.8680601661334e+15 2.0592325392523e+25
0	6701682998 11710807 301990003 303188371 5033170 5053142.8 299593 7181279795.5518 7181353884.1573 2.1514722560975e+15 1.5450403944012e+25
1	6713393805 15294722 301990000 303188372 5033169.95 5053142.8 399458 7179758977.4928 7179839093.6598 2.8680281631826e+15 2.0591865840449e+25
0	6728688527 11710485 303188374 304386742 5053142.815 5073115.615 299594 7181205706.201 7181279795.5517 2.1514572406893e+15 1.5450136713537e+25
1	6740399012 15294739 303188376 304386744 5053142.85 5073115.65 399457 7179678860.4073 7179758977.2922 2.867988980196e+15 2.0591354740588e+25
0	6755693751 11710663 304386751 305585119 5073115.8 5093088.6 299593 7181131615.3049 7181205705.4592 2.151427862563e+15 1.5449766342517e+25
1	6767404414 15294763 304386746 305585116 5073115.7 5093088.55 399458 7179598742.2345 7179678860.2067 2.867964156289e+15 2.0590946737439e+25
0	6782699177 11711292 305585122 306783490 5093088.615 5113061.415 299594 7181057524.4147 7181131615.3049 2.1514128465426e+15 1.5449499109828e+25
1	6794410469 15294755 305585120 306783488 5093088.6 5113061.4 399457 7179518623.3877 7179598742.0339 2.8679249727484e+15 2.0590435639879e+25
0	6809705224 11710303 306783499 307981858 5113061.6 5133034.215 299592 7180983432.7664 7181057523.6728 2.1513762871302e+15 1.5449077174515e+25
1	6821415527 15294823 306783492 307981864 5113061.45 5133034.35 399459 7179438503.2146 7179518623.1871 2.8679073274063e+15 2.0590079178779e+25
0	6836710350 11710694 307981867 309180238 5133034.4 5153007.215 299594 7180909339.6339 7180983432.0245 2.1513684515769e+15 1.5448861507512e+25
1	6848421044 15294731 307981868 309180236 5133034.4 5153007.2 399457 7179358382.5623 7179438503.014 2.867860963792e+15 2.0589516538018e+25
0	6863715775 11710214 309180238 310378606 5153007.215 5172980.015 299593 7180835246.4356 7180909339.634 2.1513390728306e+15 1.5448491140743e+25
1	6875425989 15294749 309180240 310378610 5153007.25 5172980.1 399458 7179278260.8339 7179358382.3618 2.8678361381371e+15 2.0589108530285e+25
0	6890720738 11710683 310378615 311576983 5172980.2 5192953 299593 7180761151.7527 7180835245.6938 2.1513168748411e+15 1.5448172340533e+25
1	6902431421 15294758 310378612 311576984 5172980.15 5192953 399458 7179198138.1756 7179278260.6333 2.867804132686e+15 2.0588648978206e+25
0	6917726179 11710593 311576986 312775354 5192953.015 5212925.815 299594 7180687057.0312 7180761151.7528 2.1513018573125e+15 1.544790510263e+25
1	6929436772 15294722 311576988 312775356 5192953.05 5212925.85 399457 7179118014.8432 7179198137.975 2.8677649477593e+15 2.0588137886386e+25
0	6944731494 11710753 312775363 313973731 5212926 5232898.8 299593 7180612960.8174 7180687056.2894 2.151272478106e+15 1.5447534739121e+25
1	6956442247 15294782 312775358 313973728 5212925.9 5232898.75 399458 7179037890.4277 7179118014.6426 2.8677401207926e+15 2.0587729875203e+25
0	6971737029 11711302 313973734 315172102 5232898.815 5252871.615 299594 7180538864.5507 7180612960.8175 2.1512574599665e+15 1.5447267499024e+25
1	6983448331 15294654 313973732 315172100 5232898.8 5252871.6 399457 7178957765.2896 7179037890.2271 2.8677009353119e+15 2.0587218785686e+25
0	6998742985 11710680 315172111 316370470 5252871.8 5272844.415 299592 7180464767.5063 7180538863.8088 2.1512208999754e+15 1.5446845578427e+25
1	7010453665 15294783 315172104 316370476 5252871.65 5272844.55 399459 7178877638.8756 7178957765.089 2.8676832863471e+15 2.0586862308473e+25
0	7025748448 11711687 316370479 317568850 5272844.6 5292817.415 299594 7180390668.9653 7180464766.7644 2.1512130617624e+15 1.5446629896254e+25
1	7037460135 15294472 316370480 317568848 5272844.6 5292817.4 399457 7178797511.9733 7178877638.675 2.8676369213554e+15 2.0586299683836e+25
0	7052754607 11710695 317568850 318767218 5292817.415 5312790.215 299593 7180316570.4234 7180390668.9653 2.1511836819274e+15 1.5446259536877e+25
1	7064465302 15294759 317568852 318767222 5292817.45 5312790.3 399458 7178717383.954 7178797511.7727 2.8676120926382e+15 2.0585891668036e+25
0	7079760061 11711829 318767227 319965595 5312790.4 5332763.2 299593 7180242470.3735 7180316569.6816 2.1511614823366e+15 1.5445940736699e+25
1	7091471890 15294774 318767224 319965596 5312790.35 5332763.2 399458 7178637255.0599 7178717383.7534 2.8675800846863e+15 2.0585432115955e+25
0	7106766664 11710412 319965598 321163966 5332763.215 5352736.015 299594 7180168370.3213 7180242470.3734 2.1511464626833e+15 1.5445673491311e+25
1	7118477076 15294726 319965600 321163968 5332763.25 5352736.05 399457 7178557125.4699 7178637254.8593 2.867540897821e+15 2.0584921032205e+25
0	7133771802 11710607 321163975 322362343 5352736.2 5372709 299593 7180094268.7518 7180168369.5794 2.151117082399e+15 1.5445303135353e+25
1	7145482409 15294771 321163970 322362340 5352736.1 5372708.95 399458 7178476994.7698 7178557125.2693 2.8675160677914e+15 2.0584513012951e+25
0	7160777180 11711221 322362346 323560714 5372709.015 5392681.815 299594 7180020167.1285 7180094268.7519 2.1511020621354e+15 1.5445035887783e+25
1	7172488401 15294730 322362344 323560712 5372709 5392681.8 399457 7178396863.3955 7178476994.5692 2.867476880371e+15 2.058400193149e+25
0	7187783131 11710968 323560723 324759082 5392682 5412654.615 299592 7179946064.7612 7180020166.3865 2.1510655015796e+15 1.5444613982105e+25
1	7199494099 15294808 323560716 324759088 5392681.85 5412654.75 399459 7178316730.7161 7178396863.1949 2.8674592277845e+15 2.0583645438185e+25
0	7214788907 11710811 324759091 325957462 5412654.8 5432627.615 299594 7179871960.8759 7179946064.0193 2.1510576607326e+15 1.5444398285138e+25
1	7226499718 15294753 324759092 325957460 5412654.8 5432627.6 399457 7178236597.5356 7178316730.5155 2.8674128614122e+15 2.0583082829635e+25
0	7241794471 11710456 325957462 327155830 5432627.615 5452600.415 299593 7179797856.9731 7179871960.876 2.1510282798151e+15 1.5444027933247e+25
1	7253504927 15294753 325957464 327155834 5432627.65 5452600.5 399458 7178156463.2796 7178236597.335 2.8673880296335e+15 2.0582674805789e+25
0	7268799680 11710501 327155839 328354207 5452600.6 5472573.4 299593 7179723751.5263 7179797856.2311 2.1510060786094e+15 1.544370913291e+25
1	7280510181 15294727 327155836 328354208 5452600.55 5472573.4 399458 7178076328.1124 7178156463.079 2.8673560191812e+15 2.058221525372e+25
0	7295804908 11710051 328354210 329552578 5472573.415 5492546.215 299594 7179649646.0509 7179723751.5262 2.1509910568195e+15 1.5443441879873e+25
1	7307514959 15294727 328354212 329552580 5472573.45 5492546.25 399457 7177996192.2507 7178076327.9118 2.8673168303741e+15 2.0581704178002e+25
0	7322809686 11710684 329552587 330750955 5492546.4 5512519.2 299593 7179575539.1493 7179649645.309 2.1509616754348e+15 1.5443071531146e+25
1	7334520370 15294764 329552582 330750952 5492546.3 5512519.15 399458 7177916055.3133 7177996192.05 2.8672919972831e+15 2.0581296150707e+25
0	7349815134 11710580 330750958 331949326 5512519.215 5532492.015 299594 7179501432.1861 7179575539.1494 2.1509466530543e+15 1.5442804276209e+25
1	7361525714 15294742 330750956 331949324 5512519.2 5532492 399457 7177835917.658 7177916055.1127 2.8672528079226e+15 2.0580785077307e+25
0	7376820456 11710583 331949335 333147694 5532492.2 5552464.815 299592 7179427324.4519 7179501431.4442 2.1509100919386e+15 1.5442382385526e+25
1	7388531039 15294804 331949328 333147700 5532492.05 5552464.95 399459 7177755778.7135 7177835917.4574 2.8672351517114e+15 2.0580428567876e+25
0	7403825843 11710455 333147703 334346074 5552465 5572437.815 299594 7179353215.2357 7179427323.7099 2.1509022484464e+15 1.5442166673607e+25
1	7415536298 15294721 333147704 334346072 5552465 5572437.8 399457 7177675639.2952 7177755778.5129 2.8671887839605e+15 2.0579865975447e+25
0	7430831019 11710718 334346074 335544442 5572437.815 5592410.615 299593 7179279105.9813 7179353215.2358 2.1508728664503e+15 1.5441796329265e+25
1	7442541737 15294731 334346076 335544446 5572437.85 5592410.7 399458 7177595498.7502 7177675639.0946 2.8671639491193e+15 2.057945794355e+25
[...]
0	10455447016 11711093 468563866 469762234 7809401.015 7829373.815 299593 7170973987.3907 7171048182.4593 2.1483847239128e+15 1.5406090669619e+25
1	10467158109 15294800 468563868 469762238 7809401.05 7829373.9 399458 7168614096.427 7168694337.1497 2.8635762761599e+15 2.0527988147618e+25
0	10482452909 11711150 469762243 470960611 7829374 7849346.8 299593 7170899790.7338 7170973986.6478 2.1483624953861e+15 1.5405771869245e+25
1	10494164059 15294737 469762240 470960612 7829373.95 7849346.8 399458 7168533854.587 7168614096.2261 2.8635442230975e+15 2.0527528595548e+25
0	10509458796 11710872 470960614 472158982 7849346.815 7869319.615 299594 7170825594.0788 7170899790.7337 2.1483474374517e+15 1.5405504489564e+25
1	10521169668 15294736 470960616 472158984 7849346.85 7869319.65 399457 7168453612.0514 7168533854.3861 2.8635050012214e+15 2.0527017656733e+25
0	10536464404 11710537 472158991 473357359 7869319.8 7889292.6 299593 7170751395.9423 7170825593.3359 2.1483180375723e+15 1.5405134267489e+25
1	10548174941 15294733 472158986 473357356 7869319.7 7889292.55 399458 7168373368.4374 7168453611.8505 2.863480115975e+15 2.0526609492537e+25
0	10563469674 11710885 473357362 474555730 7889292.615 7909265.415 299594 7170677197.7727 7170751395.9424 2.1483029790363e+15 1.5404866885777e+25
1	10575180559 15294718 473357360 474555728 7889292.6 7909265.4 399457 7168293124.096 7168373368.2366 2.8634408935428e+15 2.0526098556036e+25
0	10590475277 11710214 474555739 475754098 7909265.6 7929238.215 299592 7170602998.839 7170677197.0298 2.1482664082378e+15 1.5404445248218e+25
1	10602185491 15294803 474555732 475754104 7909265.45 7929238.35 399459 7168212878.4681 7168293123.8951 2.8634231756302e+15 2.0525741772802e+25
0	10617480294 11710772 475754107 476952478 7929238.4 7949211.215 299594 7170528798.3742 7170602998.0959 2.1482585197721e+15 1.5404229283012e+25
1	10629191066 15294715 475754108 476952476 7929238.4 7949211.2 399457 7168132632.3595 7168212878.2672 2.863376784348e+15 2.0525179454181e+25
0	10644485781 11710578 476952478 478150846 7949211.215 7969184.015 299593 7170454597.9402 7170528798.3742 2.1482291192705e+15 1.5403859065208e+25
1	10656196359 15294779 476952480 478150850 7949211.25 7969184.1 399458 7168052385.1194 7168132632.1586 2.8633518973448e+15 2.0524771285376e+25
0	10671491138 11711127 478150855 479349223 7969184.2 7989157 299593 7170380395.9613 7170454597.1973 2.1482068891423e+15 1.5403540264958e+25
1	10683202265 15294691 478150852 479349224 7969184.15 7989157 399458 7167972137.0017 7168052384.9185 2.8633198417697e+15 2.0524311733292e+25
0	10698496956 11711654 479349226 480547594 7989157.015 8009129.815 299594 7170306193.9749 7170380395.9614 2.1481918290978e+15 1.5403272878107e+25
1	10710208610 15294733 479349228 480547596 7989157.05 8009129.85 399457 7167891888.1901 7167972136.8008 2.8632806179449e+15 2.0523800802551e+25
0	10725503343 11710954 480547603 481745971 8009130 8029102.8 299593 7170231990.4684 7170306193.2319 2.1481624281289e+15 1.54029026635e+25
1	10737214297 15294753 480547598 481745968 8009129.9 8029102.75 399458 7167811638.2591 7167891887.9892 2.863255729624e+15 2.052339263029e+25
0	10752509050 11711629 481745974 482944342 8029102.815 8049075.615 299594 7170157786.9472 7170231990.4685 2.1481473674683e+15 1.5402635274412e+25
1	10764220679 15294737 481745972 482944340 8029102.8 8049075.6 399457 7167731387.6514 7167811638.0582 2.8632165052411e+15 2.0522881701837e+25
0	10779515416 11711003 482944351 484142710 8049075.8 8069048.415 299592 7170083582.6283 7170157786.2042 2.148110796102e+15 1.5402213651805e+25
1	10791226419 15294798 482944344 484142716 8049075.65 8069048.55 399459 7167651135.7347 7167731387.4505 2.8631987836942e+15 2.0522524902515e+25
0	10806521217 11711075 484142719 485341090 8069048.6 8089021.415 299594 7170009376.8161 7170083581.8853 2.1481029049927e+15 1.5401997671781e+25
1	10818232292 15294783 484142720 485341088 8069048.6 8089021.4 399457 7167570883.3135 7167651135.5338 2.863152391022e+15 2.0521962599981e+25
0	10833527075 11710944 485341090 486539458 8089021.415 8108994.215 299593 7169935171.0058 7170009376.8161 2.1480735034028e+15 1.5401627461464e+25
1	10845238019 15294759 485341092 486539462 8089021.45 8108994.3 399458 7167490629.8136 7167570883.1126 2.8631275009451e+15 2.0521554423128e+25
0	10860532778 11711112 486539467 487737835 8108994.4 8128967.2 299593 7169860963.6834 7169935170.2629 2.14805127167e+15 1.5401308661299e+25
1	10872243890 15294766 486539464 487737836 8108994.35 8128967.2 399458 7167410375.3943 7167490629.6127 2.8630954428585e+15 2.0521094871057e+25
0	10887538656 11710898 487737838 488936206 8128967.215 8148940.015 299594 7169786756.2662 7169860963.6835 2.1480362094895e+15 1.5401041266912e+25
1	10899249554 15294737 487737840 488936208 8128967.25 8148940.05 399457 7167330120.2817 7167410375.1934 2.8630562170816e+15 2.0520583948348e+25
0	10914544291 11710375 488936215 490134583 8148940.2 8168913 299593 7169712547.347 7169786755.5232 2.1480068074171e+15 1.5400671059576e+25
1	10926254666 15294776 488936210 490134580 8148940.1 8168912.95 399458 7167249864.0904 7167330120.0808 2.8630313256873e+15 2.0520175768047e+25
0	10941549442 11710803 490134586 491332954 8168913.015 8188885.815 299594 7169638338.458 7169712547.347 2.1479917446202e+15 1.540040366295e+25
1	10953260245 15294707 490134584 491332952 8168913 8188885.8 399457 7167169607.1681 7167249863.8895 2.8629920993538e+15 2.0519664847651e+25
0	10968554952 11710397 491332963 492531322 8188886 8208858.615 299592 7169564128.7559 7169638337.7148 2.1479551726858e+15 1.5399982055291e+25
1	10980265349 15294825 491332956 492531328 8188885.85 8208858.75 399459 7167089348.9621 7167169606.9671 2.8629743741695e+15 2.0519308032205e+25
0	10995560174 11710871 492531331 493729702 8208858.8 8228831.615 299594 7169489917.5561 7169564128.0128 2.1479472789193e+15 1.5399766060261e+25
1	11007271045 15294680 492531332 493729700 8208858.8 8228831.6 399457 7167009090.2714 7167089348.7612 2.8629279801094e+15 2.0518745745797e+25
0	11022565725 11710679 493729702 494928070 8228831.615 8248804.415 299593 7169415706.3279 7169489917.5561 2.1479178762316e+15 1.5399395857301e+25
1	11034276404 15294797 493729704 494928074 8228831.65 8248804.5 399458 7166928830.4525 7167009090.0705 2.8629030869574e+15 2.0518337560885e+25
0	11049571201 11710824 494928079 496126447 8248804.6 8268777.4 299593 7169341493.6059 7169415705.5849 2.1478956428786e+15 1.5399077057001e+25
1	11061282025 15294745 494928076 496126448 8248804.55 8268777.4 399458 7166848569.7556 7166928830.2516 2.862871026357e+15 2.0517878008802e+25
0	11076576770 11710923 496126450 497324818 8268777.415 8288750.215 299594 7169267280.8336 7169341493.606 2.147880578566e+15 1.5398809655141e+25
1	11088287693 15294719 496126452 497324820 8268777.45 8288750.25 399457 7166768308.3604 7166848569.5547 2.8628317986303e+15 2.0517367094166e+25
0	11103582412 11710576 497324827 498523195 8288750.4 8308723.2 299593 7169193066.5707 7169267280.0905 2.1478511754101e+15 1.5398439455367e+25
1	11115292988 15294774 497324822 498523192 8288750.3 8308723.15 399458 7166688045.8495 7166768308.1595 2.8628069041601e+15 2.0516958905798e+25
0	11130587762 11710671 498523198 499721566 8308723.215 8328696.015 299594 7169118852.2587 7169193066.5707 2.1478361104877e+15 1.5398172051363e+25
1	11142298433 15294713 498523196 499721564 8308723.2 8328696 399457 7166607782.6615 7166688045.6486 2.862767675875e+15 2.0516447993453e+25
0	11157593146 11710565 499721575 500919934 8328696.2 8348668.815 299592 7169044637.1698 7169118851.5156 2.1477995379729e+15 1.5397750458483e+25
1	11169303711 15294814 499721568 500919940 8328696.05 8348668.95 399459 7166527518.1596 7166607782.4606 2.8627499470549e+15 2.0516091161918e+25
0	11184598525 11710909 500919943 502118314 8348669 8368641.815 299594 7168970420.5991 7169044636.4268 2.1477916415522e+15 1.5397534448496e+25
1	11196309434 15294727 500919944 502118312 8348669 8368641.8 399457 7166447253.1574 7166527517.9587 2.8627035516038e+15 2.0515528891596e+25
0	11211604161 11710556 502118314 503316682 8368641.815 8388614.615 299593 7168896203.9981 7168970420.5992 2.1477622377738e+15 1.5397164252998e+25
1	11223314717 15294749 502118316 503316686 8368641.85 8388614.7 399458 7166366987.0762 7166447252.9565 2.862678655377e+15 2.0515120698639e+25
0	11238609466 11710961 503316691 504515059 8388614.8 8408587.6 299593 7168821985.8938 7168896203.2551 2.1477400028136e+15 1.5396845452754e+25
1	11250320427 15294766 503316688 504515060 8388614.75 8408587.6 399458 7166286720.0701 7166366986.8753 2.8626465922637e+15 2.0514661146566e+25
0	11265615193 11710720 504515062 505713430 8408587.615 8428560.415 299594 7168747767.773 7168821985.8937 2.1477249363677e+15 1.5396578043408e+25
1	11277325913 15294730 504515064 505713432 8408587.65 8428560.45 399457 7166206452.3755 7166286719.8692 2.8626073625839e+15 2.0514150239963e+25
0	11292620643 11710491 505713439 506911807 8428560.6 8448533.4 299593 7168673548.1416 7168747767.03 2.1476955321326e+15 1.5396207851263e+25
1	11304331134 15294759 505713434 506911804 8428560.5 8448533.35 399458 7166126183.6002 7166206452.1746 2.8625824650392e+15 2.0513742043558e+25
0	11319625893 11710860 506911810 508110178 8448533.415 8468506.215 299594 7168599328.4739 7168673548.1416 2.1476804650779e+15 1.539594043979e+25
1	11331336753 15294723 506911808 508110176 8448533.4 8468506.2 399457 7166045914.0911 7166126183.3992 2.8625432348022e+15 2.0513231139265e+25
0	11346631476 11710423 508110187 509308546 8468506.4 8488479.015 299592 7168525108.0658 7168599327.7308 2.147643892004e+15 1.5395518861997e+25
1	11358341899 15294792 508110180 509308552 8468506.25 8488479.15 399459 7165965643.3019 7166045913.8901 2.8625255023433e+15 2.0512874291609e+25
0	11373636691 11710862 509308555 510506926 8488479.2 8508452.015 299594 7168450886.0961 7168525107.3227 2.147635992943e+15 1.5395302837258e+25
1	11385347553 15294744 509308556 510506924 8488479.2 8508452 399457 7165885372.0218 7165965643.101 2.8624791055034e+15 2.0512312037413e+25
0	11400642297 11710744 510506926 511705294 8508452.015 8528424.815 299593 7168376664.1411 7168450886.0962 2.1476065880754e+15 1.5394932649248e+25
1	11412353041 15294793 510506928 511705298 8508452.05 8528424.9 399458 7165805099.619 7165885371.8208 2.8624542062e+15 2.0511903836392e+25
0	11427647834 11710761 511705303 512903671 8528425 8548397.8 299593 7168302440.6497 7168376663.398 2.1475843515056e+15 1.5394613849032e+25
1	11439358595 15294789 511705300 512903672 8528424.95 8548397.8 399458 7165724826.3379 7165805099.418 2.862422140572e+15 2.0511444284312e+25
0	11454653384 11711091 512903674 514102042 8548397.815 8568370.615 299594 7168228217.1167 7168302440.6498 2.1475692829241e+15 1.5394346432172e+25
1	11466364475 15294700 512903676 514102044 8548397.85 8568370.65 399457 7165644552.3516 7165724826.1369 2.8623829089412e+15 2.0510933385782e+25
0	11481659175 11710647 514102051 515300419 8568370.8 8588343.6 299593 7168153992.0728 7168228216.3736 2.1475398775811e+15 1.539397624725e+25
1	11493369822 15294793 514102046 515300416 8568370.7 8588343.55 399458 7165564277.2557 7165644552.1507 2.8623580083191e+15 2.0510525181307e+25
0	11508664615 11710632 515300422 516498790 8588343.615 8608316.415 299594 7168079767.0022 7168153992.0729 2.1475248083894e+15 1.5393708828244e+25
1	11520375247 15294732 515300420 516498788 8588343.6 8608316.4 399457 7165484001.4825 7165564277.0548 2.8623187761298e+15 2.0510014285069e+25
0	11535669979 11710711 516498799 517697158 8608316.6 8628289.215 299592 7168005541.1924 7168079766.259 2.1474882347326e+15 1.5393287265201e+25
1	11547380690 15294813 516498792 517697164 8608316.45 8628289.35 399459 7165403724.3879 7165484001.2816 2.8623010400336e+15 2.0509657421321e+25
0	11562675503 11710755 517697167 518895538 8628289.4 8648262.215 299594 7167931313.8703 7168005540.4492 2.1474803330218e+15 1.539307122558e+25
1	11574386258 15294745 517697168 518895536 8628289.4 8648262.2 399457 7165323446.7997 7165403724.1869 2.8622546418015e+15 2.0509095183211e+25
0	11589681003 11710846 518895538 520093906 8648262.215 8668235.015 299593 7167857086.5323 7167931313.8704 2.1474509270639e+15 1.5392701045047e+25
1	11601391849 15294715 518895540 520093910 8648262.25 8668235.1 399458 7165243168.1322 7165323446.5988 2.8622297394224e+15 2.050868697415e+25
0	11616686564 11710661 520093915 521292283 8668235.2 8688208 299593 7167782857.6883 7167857085.7891 2.1474286888852e+15 1.5392382244874e+25
1	11628397225 15294796 520093912 521292284 8668235.15 8688208 399458 7165162888.5318 7165243167.9312 2.8621976712801e+15 2.0508227422074e+25
0	11643692021 11710359 521292286 522490654 8688208.015 8708180.815 299594 7167708628.7904 7167782857.6882 2.1474136181836e+15 1.5392114820729e+25
1	11655402380 15294749 521292288 522490656 8688208.05 8708180.85 399457 7165082608.2501 7165162888.3308 2.8621584376951e+15 2.0507716531579e+25
0	11670697129 11710947 522490663 523689031 8708181 8728153.8 299593 7167634398.397 7167708628.0471 2.1473842117533e+15 1.5391744643328e+25
1	11682408076 15294760 522490658 523689028 8708180.9 8728153.75 399458 7165002326.8793 7165082608.0491 2.8621335339975e+15 2.0507308319069e+25
0	11697702836 11711121 523689034 524887402 8728153.815 8748126.615 299594 7167560167.9951 7167634398.3971 2.1473691404421e+15 1.5391477217048e+25
1	11709413957 15294735 523689032 524887400 8728153.8 8748126.6 399457 7164922044.7825 7165002326.6783 2.8620942998547e+15 2.0506797430879e+25
0	11724708692 11710942 524887411 526085770 8748126.8 8768099.415 299592 7167485936.7872 7167560167.2519 2.1473325662183e+15 1.5391055668987e+25
1	11736419634 15294824 524887404 526085776 8748126.65 8768099.55 399459 7164841761.4051 7164922044.5815 2.8620765601187e+15 2.0506440551012e+25
0	11751714458 11711047 526085779 527284150 8768099.6 8788072.415 299594 7167411704.089 7167485936.0439 2.1473246618549e+15 1.539083961445e+25
1	11763425505 15294709 526085780 527284148 8768099.6 8788072.4 399457 7164761477.528 7164841761.2042 2.8620301604968e+15 2.050587832903e+25
0	11778720214 11710620 527284150 528482518 8788072.415 8808045.215 299593 7167337471.3857 7167411704.089 2.1472952548094e+15 1.5390469441437e+25
1	11790430834 15294755 527284152 528482522 8788072.45 8808045.3 399458 7164681192.5363 7164761477.327 2.8620052550395e+15 2.05054701119e+25
0	11805725589 11710826 528482527 529680895 8808045.4 8828018.2 299593 7167263237.1399 7167337470.6424 2.1472730150152e+15 1.5390150641216e+25
1	11817436415 15294797 528482524 529680896 8808045.35 8828018.2 399458 7164600906.666 7164681192.3353 2.8619731843817e+15 2.0505010559823e+25
0	11832731212 11710599 529680898 530879266 8828018.215 8847991.015 299594 7167189002.8581 7167263237.14 2.1472579421791e+15 1.5389883209585e+25
1	11844441811 15294759 529680900 530879268 8828018.25 8847991.05 399457 7164520620.0811 7164600906.465 2.8619339488445e+15 2.0504499677397e+25
0	11859736570 11711113 530879275 532077643 8847991.2 8867964 299593 7167114767.0973 7167189002.1148 2.1472285346601e+15 1.538951303969e+25
1	11871447683 15294780 530879270 532077640 8847991.1 8867963.95 399458 7164440332.3953 7164520619.8801 2.861909042068e+15 2.0504091456815e+25
0	11886742463 11710992 532077646 533276014 8867964.015 8887936.815 299594 7167040531.311 7167114767.0973 2.147213461218e+15 1.5389245605976e+25
1	11898453455 15294720 532077644 533276012 8867964 8887936.8 399457 7164360044.0318 7164440332.1943 2.8618698059723e+15 2.0503580576687e+25
0	11913748175 11710720 533276023 534474382 8887937 8907909.615 299592 7166966294.7287 7167040530.5677 2.1471768864224e+15 1.5388824072832e+25
1	11925458895 15294817 533276016 534474388 8887936.85 8907909.75 399459 7164279754.337 7164360043.8308 2.8618520625972e+15 2.0503223680722e+25
0	11940753712 11710441 534474391 535672762 8907909.8 8927882.615 299594 7166892056.6225 7166966293.9854 2.1471689794011e+15 1.538860800331e+25
1	11952464153 15294779 534474392 535672760 8907909.8 8927882.6 399457 7164199464.1578 7164279754.136 2.8618056615822e+15 2.0502661474826e+25
0	11967758932 11710520 535672762 536871130 8927882.615 8947855.415 299593 7166817818.4855 7166892056.6226 2.1471395712531e+15 1.5388237837607e+25
1	11979469452 15294673 535672764 536871134 8927882.65 8947855.5 399458 7164119172.8927 7164199463.9568 2.8617807530483e+15 2.0502253249662e+25
0	11994764125 11710892 536871139 538069507 8947855.6 8967828.4 299593 7166743578.8679 7166817817.7422 2.1471173298421e+15 1.5387919037326e+25
1	12006475017 15294792 536871136 538069508 8947855.55 8967828.4 399458 7164038880.6967 7164119172.6917 2.8617486798743e+15 2.050179369758e+25
0	12021769809 11710936 538069510 539267878 8967828.415 8987801.215 299594 7166669339.2315 7166743578.8679 2.1471022548735e+15 1.5387651598243e+25
1	12033480745 15294732 538069512 539267880 8967828.45 8987801.25 399457 7163958587.823 7164038880.4957 2.8617094423821e+15 2.0501282823194e+25
0	12048775477 11710684 539267887 540466255 8987801.4 9007774.2 299593 7166595098.0246 7166669338.4882 2.1470728462596e+15 1.5387281435769e+25
1	12060486161 15294772 539267882 540466252 8987801.3 9007774.15 399458 7163878293.8493 7163958587.622 2.861684532529e+15 2.050087459458e+25
0	12075780933 11710836 540466258 541664626 9007774.215 9027747.015 299594 7166520856.7983 7166595098.0247 2.1470577706668e+15 1.5387013994344e+25
1	12087491769 15294726 540466256 541664624 9007774.2 9027747 399457 7163797999.1596 7163878293.6482 2.8616452944783e+15 2.0500363722492e+25
0	12102786495 11710821 541664635 542862994 9027747.2 9047719.815 299592 7166446614.8322 7166520856.055 2.1470211952884e+15 1.5386592475963e+25
1	12114497316 15294803 541664628 542863000 9027747.05 9047719.95 399459 7163717703.1891 7163797998.9586 2.8616275474626e+15 2.0500006810417e+25
0	12129792119 11710826 542863003 544061374 9047720 9067692.815 299594 7166372371.3787 7166446614.0889 2.147013285622e+15 1.5386376391645e+25
1	12141502945 15294722 542863004 544061372 9047720 9067692.8 399457 7163637406.7074 7163717702.9881 2.8615811450566e+15 2.0499444620645e+25
0	12156797667 11710615 544061374 545259742 9067692.815 9087665.615 299593 7166298127.8977 7166372371.3787 2.1469838763885e+15 1.5386006233501e+25
1	12168508282 15294761 544061376 545259746 9067692.85 9087665.7 399458 7163557109.1218 7163637406.5064 2.8615562334428e+15 2.0499036387408e+25
0	12183803043 11710708 545259751 546458119 9087665.8 9107638.6 299593 7166223882.8676 7166298127.1543 2.1469616333672e+15 1.5385687433258e+25
1	12195513751 15294738 545259748 546458120 9087665.75 9107638.6 399458 7163476810.6573 7163557108.9208 2.8615241577528e+15 2.0498576835334e+25
0	12210808489 11711018 546458122 547656490 9107638.615 9127611.415 299594 7166149637.8229 7166223882.8677 2.1469465562625e+15 1.5385419986678e+25
1	12222519507 15294742 546458124 547656492 9107638.65 9127611.45 399457 7163396511.4664 7163476810.4563 2.8614849183069e+15 2.0498065969011e+25
0	12237814249 11710995 547656499 548854867 9127611.6 9147584.4 299593 7166075391.2629 7166149637.0795 2.1469171465545e+15 1.5385049831641e+25
1	12249525244 15294807 547656494 548854864 9127611.5 9147584.35 399458 7163316211.1856 7163396511.2653 2.8614600053736e+15 2.0497657732324e+25
0	12264820051 11710799 548854870 550053238 9147584.415 9167557.215 299594 7166001144.6726 7166075391.2629 2.1469020688349e+15 1.5384782382854e+25
1	12276530850 15294723 548854868 550053236 9147584.4 9167557.2 399457 7163235910.2225 7163316210.9846 2.8614207653693e+15 2.0497146868305e+25
0	12291825573 11711076 550053247 551251606 9167557.4 9187530.015 299592 7165926897.3387 7166001143.9292 2.1468654928894e+15 1.5384360879465e+25
1	12303536649 15294804 550053240 551251612 9167557.25 9187530.15 399459 7163155607.9243 7163235910.0214 2.8614030147125e+15 2.0496789940122e+25
0	12318831453 11710286 551251615 552449986 9187530.2 9207503.015 299594 7165852648.4678 7165926896.5952 2.1468575805697e+15 1.5384144780238e+25
1	12330541739 15294739 551251616 552449984 9187530.2 9207503 399457 7163075305.1491 7163155607.7232 2.8613566109127e+15 2.0496227766442e+25
